/*---------------------------------------------------------------------------*\
| =========                 |                                                 |
| \\      /  F ield         | OpenFOAM: The Open Source CFD Toolbox           |
|  \\    /   O peration     | Version:  v2012                                 |
|   \\  /    A nd           | Website:  www.openfoam.com                      |
|    \\/     M anipulation  |                                                 |
\*---------------------------------------------------------------------------*/
Build  : _7bdb509494-20201222 OPENFOAM=2012
Arch   : "LSB;label=32;scalar=64"
Exec   : simpleFoam
Date   : Jun 06 2022
Time   : 17:09:42
Host   : DESKTOP-HP4EFUK
PID    : 7789
I/O    : uncollated
Case   : /home/okrejci/OpenFOAM/OpenFOAM-v2012/tutorials/incompressible/simpleFoam/cavity1
nProcs : 1
trapFpe: Floating point exception trapping enabled (FOAM_SIGFPE).
fileModificationChecking : Monitoring run-time modified files using timeStampMaster (fileModificationSkew 5, maxFileModificationPolls 20)
allowSystemOperations : Allowing user-supplied system call operations

// * * * * * * * * * * * * * * * * * * * * * * * * * * * * * * * * * * * * * //
Create time

Create mesh for time = 0


SIMPLE: no convergence criteria found. Calculations will run for 1001 steps.

Reading field p

Reading field U

Reading/calculating face flux field phi

Selecting incompressible transport model Newtonian
Selecting turbulence model type laminar
Selecting laminar stress model Stokes
No MRF models present

No finite volume options present

Starting time loop

Time = 1

smoothSolver:  Solving for Ux, Initial residual = 1, Final residual = 7.85986e-06, No Iterations 21
smoothSolver:  Solving for Uy, Initial residual = 0.917904, Final residual = 6.39872e-06, No Iterations 17
DICPCG:  Solving for p, Initial residual = 1, Final residual = 0.0484375, No Iterations 12
time step continuity errors : sum local = 0.0943137, global = -1.0032e-16, cumulative = -1.0032e-16
ExecutionTime = 0.01 s  ClockTime = 0 s

Time = 2

smoothSolver:  Solving for Ux, Initial residual = 0.1184, Final residual = 8.48101e-06, No Iterations 18
smoothSolver:  Solving for Uy, Initial residual = 0.718511, Final residual = 8.73776e-06, No Iterations 22
DICPCG:  Solving for p, Initial residual = 0.878935, Final residual = 0.0310868, No Iterations 12
time step continuity errors : sum local = 0.0834071, global = -3.81165e-17, cumulative = -1.38437e-16
ExecutionTime = 0.01 s  ClockTime = 0 s

Time = 3

smoothSolver:  Solving for Ux, Initial residual = 0.0765229, Final residual = 9.70727e-06, No Iterations 19
smoothSolver:  Solving for Uy, Initial residual = 0.340637, Final residual = 7.50171e-06, No Iterations 21
DICPCG:  Solving for p, Initial residual = 0.836728, Final residual = 0.0336427, No Iterations 9
time step continuity errors : sum local = 0.116724, global = -2.64698e-17, cumulative = -1.64907e-16
ExecutionTime = 0.01 s  ClockTime = 0 s

Time = 4

smoothSolver:  Solving for Ux, Initial residual = 0.0578013, Final residual = 6.86928e-06, No Iterations 19
smoothSolver:  Solving for Uy, Initial residual = 0.160146, Final residual = 7.57627e-06, No Iterations 19
DICPCG:  Solving for p, Initial residual = 0.766147, Final residual = 0.0302857, No Iterations 11
time step continuity errors : sum local = 0.154711, global = -7.78212e-17, cumulative = -2.42728e-16
ExecutionTime = 0.01 s  ClockTime = 0 s

Time = 5

smoothSolver:  Solving for Ux, Initial residual = 0.0253431, Final residual = 6.40331e-06, No Iterations 14
smoothSolver:  Solving for Uy, Initial residual = 0.0721926, Final residual = 8.60532e-06, No Iterations 15
DICPCG:  Solving for p, Initial residual = 0.629395, Final residual = 0.0274251, No Iterations 11
time step continuity errors : sum local = 0.142087, global = -1.56701e-16, cumulative = -3.99429e-16
ExecutionTime = 0.01 s  ClockTime = 0 s

Time = 6

smoothSolver:  Solving for Ux, Initial residual = 0.044489, Final residual = 7.30386e-06, No Iterations 17
smoothSolver:  Solving for Uy, Initial residual = 0.0705155, Final residual = 8.50587e-06, No Iterations 17
DICPCG:  Solving for p, Initial residual = 0.528912, Final residual = 0.0181169, No Iterations 11
time step continuity errors : sum local = 0.0758889, global = -6.45863e-17, cumulative = -4.64015e-16
ExecutionTime = 0.01 s  ClockTime = 0 s

Time = 7

smoothSolver:  Solving for Ux, Initial residual = 0.0417707, Final residual = 7.82375e-06, No Iterations 17
smoothSolver:  Solving for Uy, Initial residual = 0.0633413, Final residual = 8.82056e-06, No Iterations 17
DICPCG:  Solving for p, Initial residual = 0.493417, Final residual = 0.0138198, No Iterations 9
time step continuity errors : sum local = 0.0506139, global = -1.25731e-17, cumulative = -4.76588e-16
ExecutionTime = 0.01 s  ClockTime = 0 s

Time = 8

smoothSolver:  Solving for Ux, Initial residual = 0.015903, Final residual = 6.98323e-06, No Iterations 14
smoothSolver:  Solving for Uy, Initial residual = 0.041474, Final residual = 6.60108e-06, No Iterations 15
DICPCG:  Solving for p, Initial residual = 0.425452, Final residual = 0.0162497, No Iterations 11
time step continuity errors : sum local = 0.0615953, global = -6.62406e-17, cumulative = -5.42829e-16
ExecutionTime = 0.01 s  ClockTime = 0 s

Time = 9

smoothSolver:  Solving for Ux, Initial residual = 0.0209956, Final residual = 6.94274e-06, No Iterations 16
smoothSolver:  Solving for Uy, Initial residual = 0.038828, Final residual = 9.617e-06, No Iterations 15
DICPCG:  Solving for p, Initial residual = 0.356438, Final residual = 0.0174589, No Iterations 9
time step continuity errors : sum local = 0.0488552, global = -1.02173e-16, cumulative = -6.45002e-16
ExecutionTime = 0.03 s  ClockTime = 0 s

Time = 10

smoothSolver:  Solving for Ux, Initial residual = 0.0244528, Final residual = 8.94328e-06, No Iterations 16
smoothSolver:  Solving for Uy, Initial residual = 0.0304202, Final residual = 8.6778e-06, No Iterations 16
DICPCG:  Solving for p, Initial residual = 0.370989, Final residual = 0.0097077, No Iterations 9
time step continuity errors : sum local = 0.0379186, global = 6.24687e-17, cumulative = -5.82534e-16
ExecutionTime = 0.03 s  ClockTime = 0 s

Time = 11

smoothSolver:  Solving for Ux, Initial residual = 0.0111447, Final residual = 6.81247e-06, No Iterations 15
smoothSolver:  Solving for Uy, Initial residual = 0.0196285, Final residual = 6.73781e-06, No Iterations 15
DICPCG:  Solving for p, Initial residual = 0.330677, Final residual = 0.0120826, No Iterations 21
time step continuity errors : sum local = 0.0340222, global = -4.87044e-17, cumulative = -6.31238e-16
ExecutionTime = 0.03 s  ClockTime = 0 s

Time = 12

smoothSolver:  Solving for Ux, Initial residual = 0.00981334, Final residual = 6.73202e-06, No Iterations 14
smoothSolver:  Solving for Uy, Initial residual = 0.0180533, Final residual = 9.86524e-06, No Iterations 13
DICPCG:  Solving for p, Initial residual = 0.220979, Final residual = 0.0104259, No Iterations 10
time step continuity errors : sum local = 0.039659, global = 2.9805e-16, cumulative = -3.33188e-16
ExecutionTime = 0.03 s  ClockTime = 0 s

Time = 13

smoothSolver:  Solving for Ux, Initial residual = 0.0149608, Final residual = 8.13393e-06, No Iterations 15
smoothSolver:  Solving for Uy, Initial residual = 0.016704, Final residual = 7.31596e-06, No Iterations 15
DICPCG:  Solving for p, Initial residual = 0.204917, Final residual = 0.00922084, No Iterations 8
time step continuity errors : sum local = 0.0246688, global = 1.28114e-16, cumulative = -2.05075e-16
ExecutionTime = 0.03 s  ClockTime = 0 s

Time = 14

smoothSolver:  Solving for Ux, Initial residual = 0.00874336, Final residual = 7.73921e-06, No Iterations 14
smoothSolver:  Solving for Uy, Initial residual = 0.0105505, Final residual = 7.91559e-06, No Iterations 14
DICPCG:  Solving for p, Initial residual = 0.219284, Final residual = 0.00821854, No Iterations 9
time step continuity errors : sum local = 0.0299497, global = 2.12288e-16, cumulative = 7.21301e-18
ExecutionTime = 0.03 s  ClockTime = 0 s

Time = 15

smoothSolver:  Solving for Ux, Initial residual = 0.00443596, Final residual = 7.11803e-06, No Iterations 12
smoothSolver:  Solving for Uy, Initial residual = 0.00996319, Final residual = 7.61689e-06, No Iterations 12
DICPCG:  Solving for p, Initial residual = 0.17681, Final residual = 0.00681078, No Iterations 9
time step continuity errors : sum local = 0.0249232, global = -2.85874e-17, cumulative = -2.13743e-17
ExecutionTime = 0.03 s  ClockTime = 0 s

Time = 16

smoothSolver:  Solving for Ux, Initial residual = 0.00888119, Final residual = 8.41822e-06, No Iterations 14
smoothSolver:  Solving for Uy, Initial residual = 0.00993403, Final residual = 6.75235e-06, No Iterations 14
DICPCG:  Solving for p, Initial residual = 0.137876, Final residual = 0.00571817, No Iterations 8
time step continuity errors : sum local = 0.0151913, global = -2.56492e-16, cumulative = -2.77867e-16
ExecutionTime = 0.03 s  ClockTime = 0 s

Time = 17

smoothSolver:  Solving for Ux, Initial residual = 0.00679311, Final residual = 6.7722e-06, No Iterations 14
smoothSolver:  Solving for Uy, Initial residual = 0.00757231, Final residual = 9.77722e-06, No Iterations 13
DICPCG:  Solving for p, Initial residual = 0.147254, Final residual = 0.00546815, No Iterations 9
time step continuity errors : sum local = 0.0199729, global = 9.47618e-17, cumulative = -1.83105e-16
ExecutionTime = 0.03 s  ClockTime = 0 s

Time = 18

smoothSolver:  Solving for Ux, Initial residual = 0.00213304, Final residual = 6.74727e-06, No Iterations 10
smoothSolver:  Solving for Uy, Initial residual = 0.00509411, Final residual = 7.33383e-06, No Iterations 11
DICPCG:  Solving for p, Initial residual = 0.122573, Final residual = 0.00607787, No Iterations 20
time step continuity errors : sum local = 0.0155484, global = 1.28511e-16, cumulative = -5.45939e-17
ExecutionTime = 0.03 s  ClockTime = 0 s

Time = 19

smoothSolver:  Solving for Ux, Initial residual = 0.00531125, Final residual = 7.16205e-06, No Iterations 13
smoothSolver:  Solving for Uy, Initial residual = 0.00505534, Final residual = 8.51104e-06, No Iterations 12
DICPCG:  Solving for p, Initial residual = 0.0822235, Final residual = 0.00322467, No Iterations 8
time step continuity errors : sum local = 0.0108797, global = -2.7555e-16, cumulative = -3.30144e-16
ExecutionTime = 0.03 s  ClockTime = 0 s

Time = 20

smoothSolver:  Solving for Ux, Initial residual = 0.0048768, Final residual = 7.18967e-06, No Iterations 13
smoothSolver:  Solving for Uy, Initial residual = 0.00508491, Final residual = 9.82332e-06, No Iterations 12
DICPCG:  Solving for p, Initial residual = 0.0900579, Final residual = 0.00431761, No Iterations 8
time step continuity errors : sum local = 0.012697, global = -2.375e-16, cumulative = -5.67644e-16
ExecutionTime = 0.03 s  ClockTime = 0 s

Time = 21

smoothSolver:  Solving for Ux, Initial residual = 0.00129469, Final residual = 7.44795e-06, No Iterations 10
smoothSolver:  Solving for Uy, Initial residual = 0.00406153, Final residual = 7.54443e-06, No Iterations 11
DICPCG:  Solving for p, Initial residual = 0.0873113, Final residual = 0.00424561, No Iterations 8
time step continuity errors : sum local = 0.0147033, global = -1.51672e-16, cumulative = -7.19316e-16
ExecutionTime = 0.03 s  ClockTime = 0 s

Time = 22

smoothSolver:  Solving for Ux, Initial residual = 0.00262942, Final residual = 9.8767e-06, No Iterations 11
smoothSolver:  Solving for Uy, Initial residual = 0.00342038, Final residual = 9.62298e-06, No Iterations 10
DICPCG:  Solving for p, Initial residual = 0.0684699, Final residual = 0.00300096, No Iterations 8
time step continuity errors : sum local = 0.0104198, global = -4.75629e-18, cumulative = -7.24073e-16
ExecutionTime = 0.03 s  ClockTime = 0 s

Time = 23

smoothSolver:  Solving for Ux, Initial residual = 0.00327146, Final residual = 8.05355e-06, No Iterations 12
smoothSolver:  Solving for Uy, Initial residual = 0.00313707, Final residual = 9.93832e-06, No Iterations 11
DICPCG:  Solving for p, Initial residual = 0.0609011, Final residual = 0.00292425, No Iterations 8
time step continuity errors : sum local = 0.0074314, global = 9.3306e-17, cumulative = -6.30767e-16
ExecutionTime = 0.03 s  ClockTime = 0 s

Time = 24

smoothSolver:  Solving for Ux, Initial residual = 0.0015035, Final residual = 6.18697e-06, No Iterations 11
smoothSolver:  Solving for Uy, Initial residual = 0.00244056, Final residual = 6.42272e-06, No Iterations 11
DICPCG:  Solving for p, Initial residual = 0.0593572, Final residual = 0.00273143, No Iterations 8
time step continuity errors : sum local = 0.00893257, global = 1.3182e-16, cumulative = -4.98947e-16
ExecutionTime = 0.04 s  ClockTime = 0 s

Time = 25

smoothSolver:  Solving for Ux, Initial residual = 0.00120383, Final residual = 9.02791e-06, No Iterations 9
smoothSolver:  Solving for Uy, Initial residual = 0.00221213, Final residual = 8.76762e-06, No Iterations 9
DICPCG:  Solving for p, Initial residual = 0.0480249, Final residual = 0.00196565, No Iterations 8
time step continuity errors : sum local = 0.00724833, global = -9.39677e-17, cumulative = -5.92915e-16
ExecutionTime = 0.04 s  ClockTime = 0 s

Time = 26

smoothSolver:  Solving for Ux, Initial residual = 0.00200568, Final residual = 7.42754e-06, No Iterations 11
smoothSolver:  Solving for Uy, Initial residual = 0.00182092, Final residual = 7.80041e-06, No Iterations 10
DICPCG:  Solving for p, Initial residual = 0.0398492, Final residual = 0.00155138, No Iterations 9
time step continuity errors : sum local = 0.00491597, global = -2.02494e-17, cumulative = -6.13164e-16
ExecutionTime = 0.04 s  ClockTime = 0 s

Time = 27

smoothSolver:  Solving for Ux, Initial residual = 0.00128011, Final residual = 7.72207e-06, No Iterations 10
smoothSolver:  Solving for Uy, Initial residual = 0.00174144, Final residual = 7.16155e-06, No Iterations 10
DICPCG:  Solving for p, Initial residual = 0.0394006, Final residual = 0.00159326, No Iterations 9
time step continuity errors : sum local = 0.00424088, global = 8.82602e-17, cumulative = -5.24904e-16
ExecutionTime = 0.04 s  ClockTime = 0 s

Time = 28

smoothSolver:  Solving for Ux, Initial residual = 0.000460121, Final residual = 7.77758e-06, No Iterations 7
smoothSolver:  Solving for Uy, Initial residual = 0.00171205, Final residual = 8.17181e-06, No Iterations 9
DICPCG:  Solving for p, Initial residual = 0.0349337, Final residual = 0.00131258, No Iterations 8
time step continuity errors : sum local = 0.00399768, global = -2.21552e-16, cumulative = -7.46456e-16
ExecutionTime = 0.04 s  ClockTime = 0 s

Time = 29

smoothSolver:  Solving for Ux, Initial residual = 0.00112765, Final residual = 7.00806e-06, No Iterations 10
smoothSolver:  Solving for Uy, Initial residual = 0.00124265, Final residual = 7.22461e-06, No Iterations 9
DICPCG:  Solving for p, Initial residual = 0.0286519, Final residual = 0.00136181, No Iterations 6
time step continuity errors : sum local = 0.00361929, global = -3.05858e-16, cumulative = -1.05231e-15
ExecutionTime = 0.04 s  ClockTime = 0 s

Time = 30

smoothSolver:  Solving for Ux, Initial residual = 0.000928541, Final residual = 9.55283e-06, No Iterations 9
smoothSolver:  Solving for Uy, Initial residual = 0.00102882, Final residual = 7.3698e-06, No Iterations 9
DICPCG:  Solving for p, Initial residual = 0.0259646, Final residual = 0.00108962, No Iterations 9
time step continuity errors : sum local = 0.00305133, global = -8.98814e-17, cumulative = -1.1422e-15
ExecutionTime = 0.04 s  ClockTime = 0 s

Time = 31

smoothSolver:  Solving for Ux, Initial residual = 0.000297938, Final residual = 6.48743e-06, No Iterations 6
smoothSolver:  Solving for Uy, Initial residual = 0.00101335, Final residual = 8.83046e-06, No Iterations 8
DICPCG:  Solving for p, Initial residual = 0.0229793, Final residual = 0.00110695, No Iterations 8
time step continuity errors : sum local = 0.00346929, global = 6.55127e-17, cumulative = -1.07668e-15
ExecutionTime = 0.04 s  ClockTime = 0 s

Time = 32

smoothSolver:  Solving for Ux, Initial residual = 0.000615308, Final residual = 9.52233e-06, No Iterations 8
smoothSolver:  Solving for Uy, Initial residual = 0.000784879, Final residual = 5.77314e-06, No Iterations 8
DICPCG:  Solving for p, Initial residual = 0.0197853, Final residual = 0.000680549, No Iterations 8
time step continuity errors : sum local = 0.00233388, global = 4.35511e-17, cumulative = -1.03313e-15
ExecutionTime = 0.04 s  ClockTime = 0 s

Time = 33

smoothSolver:  Solving for Ux, Initial residual = 0.000628392, Final residual = 6.17457e-06, No Iterations 9
smoothSolver:  Solving for Uy, Initial residual = 0.000599209, Final residual = 7.19993e-06, No Iterations 8
DICPCG:  Solving for p, Initial residual = 0.0177797, Final residual = 0.000658087, No Iterations 9
time step continuity errors : sum local = 0.00192362, global = 1.26393e-17, cumulative = -1.02049e-15
ExecutionTime = 0.04 s  ClockTime = 0 s

Time = 34

smoothSolver:  Solving for Ux, Initial residual = 0.000236116, Final residual = 7.34904e-06, No Iterations 6
smoothSolver:  Solving for Uy, Initial residual = 0.000643388, Final residual = 6.16115e-06, No Iterations 8
DICPCG:  Solving for p, Initial residual = 0.0160541, Final residual = 0.000623557, No Iterations 9
time step continuity errors : sum local = 0.00156647, global = -8.20563e-18, cumulative = -1.0287e-15
ExecutionTime = 0.04 s  ClockTime = 0 s

Time = 35

smoothSolver:  Solving for Ux, Initial residual = 0.000299019, Final residual = 7.93159e-06, No Iterations 7
smoothSolver:  Solving for Uy, Initial residual = 0.00058944, Final residual = 8.40594e-06, No Iterations 7
DICPCG:  Solving for p, Initial residual = 0.0138658, Final residual = 0.000408173, No Iterations 8
time step continuity errors : sum local = 0.00107727, global = 2.32769e-17, cumulative = -1.00542e-15
ExecutionTime = 0.04 s  ClockTime = 0 s

Time = 36

smoothSolver:  Solving for Ux, Initial residual = 0.000397897, Final residual = 6.66121e-06, No Iterations 8
smoothSolver:  Solving for Uy, Initial residual = 0.000436886, Final residual = 8.03448e-06, No Iterations 7
DICPCG:  Solving for p, Initial residual = 0.0121897, Final residual = 0.000455088, No Iterations 8
time step continuity errors : sum local = 0.00135389, global = -2.22677e-17, cumulative = -1.02769e-15
ExecutionTime = 0.04 s  ClockTime = 0 s

Time = 37

smoothSolver:  Solving for Ux, Initial residual = 0.000210935, Final residual = 8.08333e-06, No Iterations 6
smoothSolver:  Solving for Uy, Initial residual = 0.000374536, Final residual = 7.06724e-06, No Iterations 7
DICPCG:  Solving for p, Initial residual = 0.0110293, Final residual = 0.000470843, No Iterations 9
time step continuity errors : sum local = 0.00155971, global = -3.51916e-16, cumulative = -1.3796e-15
ExecutionTime = 0.04 s  ClockTime = 0 s

Time = 38

smoothSolver:  Solving for Ux, Initial residual = 0.000150237, Final residual = 9.08775e-06, No Iterations 5
smoothSolver:  Solving for Uy, Initial residual = 0.000379981, Final residual = 9.39975e-06, No Iterations 6
DICPCG:  Solving for p, Initial residual = 0.0095633, Final residual = 0.000407702, No Iterations 8
time step continuity errors : sum local = 0.00141107, global = -6.28864e-18, cumulative = -1.38589e-15
ExecutionTime = 0.04 s  ClockTime = 0 s

Time = 39

smoothSolver:  Solving for Ux, Initial residual = 0.000251521, Final residual = 6.85393e-06, No Iterations 7
smoothSolver:  Solving for Uy, Initial residual = 0.000254295, Final residual = 6.51631e-06, No Iterations 6
DICPCG:  Solving for p, Initial residual = 0.00852928, Final residual = 0.000327154, No Iterations 8
time step continuity errors : sum local = 0.00110141, global = 1.76122e-16, cumulative = -1.20977e-15
ExecutionTime = 0.04 s  ClockTime = 0 s

Time = 40

smoothSolver:  Solving for Ux, Initial residual = 0.000165581, Final residual = 6.80461e-06, No Iterations 6
smoothSolver:  Solving for Uy, Initial residual = 0.000215599, Final residual = 7.93198e-06, No Iterations 6
DICPCG:  Solving for p, Initial residual = 0.00790594, Final residual = 0.000339338, No Iterations 8
time step continuity errors : sum local = 0.00102272, global = 7.55723e-17, cumulative = -1.1342e-15
ExecutionTime = 0.04 s  ClockTime = 0 s

Time = 41

smoothSolver:  Solving for Ux, Initial residual = 6.48437e-05, Final residual = 6.81773e-06, No Iterations 3
smoothSolver:  Solving for Uy, Initial residual = 0.000245558, Final residual = 6.82876e-06, No Iterations 6
DICPCG:  Solving for p, Initial residual = 0.00692806, Final residual = 0.000239253, No Iterations 8
time step continuity errors : sum local = 0.000736645, global = -1.0214e-16, cumulative = -1.23634e-15
ExecutionTime = 0.04 s  ClockTime = 0 s

Time = 42

smoothSolver:  Solving for Ux, Initial residual = 0.000144084, Final residual = 6.57892e-06, No Iterations 6
smoothSolver:  Solving for Uy, Initial residual = 0.0001864, Final residual = 7.87222e-06, No Iterations 5
DICPCG:  Solving for p, Initial residual = 0.00601807, Final residual = 0.000204513, No Iterations 8
time step continuity errors : sum local = 0.000695666, global = -6.21709e-17, cumulative = -1.29851e-15
ExecutionTime = 0.04 s  ClockTime = 0 s

Time = 43

smoothSolver:  Solving for Ux, Initial residual = 0.000129525, Final residual = 9.35458e-06, No Iterations 5
smoothSolver:  Solving for Uy, Initial residual = 0.000154387, Final residual = 9.16062e-06, No Iterations 5
DICPCG:  Solving for p, Initial residual = 0.00553601, Final residual = 0.000259424, No Iterations 8
time step continuity errors : sum local = 0.000912419, global = -1.83568e-16, cumulative = -1.48208e-15
ExecutionTime = 0.06 s  ClockTime = 0 s

Time = 44

smoothSolver:  Solving for Ux, Initial residual = 4.36359e-05, Final residual = 7.7548e-06, No Iterations 2
smoothSolver:  Solving for Uy, Initial residual = 0.000146721, Final residual = 7.5666e-06, No Iterations 5
DICPCG:  Solving for p, Initial residual = 0.00493296, Final residual = 0.000223398, No Iterations 19
time step continuity errors : sum local = 0.000554456, global = -1.24507e-16, cumulative = -1.60659e-15
ExecutionTime = 0.06 s  ClockTime = 0 s

Time = 45

smoothSolver:  Solving for Ux, Initial residual = 8.92797e-05, Final residual = 6.44469e-06, No Iterations 5
smoothSolver:  Solving for Uy, Initial residual = 0.000124712, Final residual = 9.34312e-06, No Iterations 4
DICPCG:  Solving for p, Initial residual = 0.00434065, Final residual = 0.000176645, No Iterations 8
time step continuity errors : sum local = 0.000628306, global = -1.42573e-16, cumulative = -1.74916e-15
ExecutionTime = 0.06 s  ClockTime = 0 s

Time = 46

smoothSolver:  Solving for Ux, Initial residual = 9.32611e-05, Final residual = 6.91555e-06, No Iterations 5
smoothSolver:  Solving for Uy, Initial residual = 9.61758e-05, Final residual = 9.06096e-06, No Iterations 4
DICPCG:  Solving for p, Initial residual = 0.00399858, Final residual = 0.000191425, No Iterations 7
time step continuity errors : sum local = 0.000588246, global = -1.92038e-16, cumulative = -1.9412e-15
ExecutionTime = 0.06 s  ClockTime = 0 s

Time = 47

smoothSolver:  Solving for Ux, Initial residual = 4.11677e-05, Final residual = 6.29949e-06, No Iterations 3
smoothSolver:  Solving for Uy, Initial residual = 9.07788e-05, Final residual = 8.33097e-06, No Iterations 4
DICPCG:  Solving for p, Initial residual = 0.00365717, Final residual = 0.000139656, No Iterations 7
time step continuity errors : sum local = 0.000437438, global = 1.10743e-16, cumulative = -1.83045e-15
ExecutionTime = 0.06 s  ClockTime = 0 s

Time = 48

smoothSolver:  Solving for Ux, Initial residual = 3.76822e-05, Final residual = 6.44267e-06, No Iterations 3
smoothSolver:  Solving for Uy, Initial residual = 8.94353e-05, Final residual = 7.02826e-06, No Iterations 4
DICPCG:  Solving for p, Initial residual = 0.00321931, Final residual = 0.000132914, No Iterations 7
time step continuity errors : sum local = 0.000437038, global = 1.37312e-17, cumulative = -1.81672e-15
ExecutionTime = 0.06 s  ClockTime = 0 s

Time = 49

smoothSolver:  Solving for Ux, Initial residual = 6.26949e-05, Final residual = 7.67388e-06, No Iterations 4
smoothSolver:  Solving for Uy, Initial residual = 6.06289e-05, Final residual = 7.56869e-06, No Iterations 3
DICPCG:  Solving for p, Initial residual = 0.00287756, Final residual = 0.000134624, No Iterations 9
time step continuity errors : sum local = 0.000469768, global = -1.26128e-16, cumulative = -1.94285e-15
ExecutionTime = 0.06 s  ClockTime = 0 s

Time = 50

smoothSolver:  Solving for Ux, Initial residual = 4.47646e-05, Final residual = 8.11694e-06, No Iterations 3
smoothSolver:  Solving for Uy, Initial residual = 7.06173e-05, Final residual = 7.46984e-06, No Iterations 4
DICPCG:  Solving for p, Initial residual = 0.00265599, Final residual = 0.000124566, No Iterations 18
time step continuity errors : sum local = 0.000313773, global = -1.82006e-18, cumulative = -1.94467e-15
ExecutionTime = 0.06 s  ClockTime = 0 s

Time = 51

smoothSolver:  Solving for Ux, Initial residual = 2.12361e-05, Final residual = 6.92153e-06, No Iterations 1
smoothSolver:  Solving for Uy, Initial residual = 5.73526e-05, Final residual = 7.90685e-06, No Iterations 3
DICPCG:  Solving for p, Initial residual = 0.00239306, Final residual = 0.000118261, No Iterations 17
time step continuity errors : sum local = 0.000293572, global = 6.11452e-17, cumulative = -1.88353e-15
ExecutionTime = 0.06 s  ClockTime = 0 s

Time = 52

smoothSolver:  Solving for Ux, Initial residual = 4.66606e-05, Final residual = 8.96075e-06, No Iterations 3
smoothSolver:  Solving for Uy, Initial residual = 5.7061e-05, Final residual = 7.50784e-06, No Iterations 3
DICPCG:  Solving for p, Initial residual = 0.00213755, Final residual = 8.6014e-05, No Iterations 8
time step continuity errors : sum local = 0.00029759, global = -2.20956e-16, cumulative = -2.10448e-15
ExecutionTime = 0.06 s  ClockTime = 0 s

Time = 53

smoothSolver:  Solving for Ux, Initial residual = 3.81879e-05, Final residual = 7.51935e-06, No Iterations 3
smoothSolver:  Solving for Uy, Initial residual = 4.98413e-05, Final residual = 8.52042e-06, No Iterations 3
DICPCG:  Solving for p, Initial residual = 0.00200214, Final residual = 0.000100017, No Iterations 7
time step continuity errors : sum local = 0.000295321, global = -1.32944e-16, cumulative = -2.23743e-15
ExecutionTime = 0.06 s  ClockTime = 0 s

Time = 54

smoothSolver:  Solving for Ux, Initial residual = 1.63306e-05, Final residual = 6.69918e-06, No Iterations 1
smoothSolver:  Solving for Uy, Initial residual = 4.11707e-05, Final residual = 6.99685e-06, No Iterations 3
DICPCG:  Solving for p, Initial residual = 0.00181446, Final residual = 7.98563e-05, No Iterations 7
time step continuity errors : sum local = 0.000237448, global = 9.56883e-17, cumulative = -2.14174e-15
ExecutionTime = 0.06 s  ClockTime = 0 s

Time = 55

smoothSolver:  Solving for Ux, Initial residual = 1.76795e-05, Final residual = 7.89195e-06, No Iterations 1
smoothSolver:  Solving for Uy, Initial residual = 3.47767e-05, Final residual = 7.89051e-06, No Iterations 2
DICPCG:  Solving for p, Initial residual = 0.00160278, Final residual = 6.32075e-05, No Iterations 6
time step continuity errors : sum local = 0.000204544, global = 3.26306e-16, cumulative = -1.81543e-15
ExecutionTime = 0.06 s  ClockTime = 0 s

Time = 56

smoothSolver:  Solving for Ux, Initial residual = 2.96479e-05, Final residual = 9.45612e-06, No Iterations 2
smoothSolver:  Solving for Uy, Initial residual = 3.39485e-05, Final residual = 7.6306e-06, No Iterations 2
DICPCG:  Solving for p, Initial residual = 0.00143119, Final residual = 6.82707e-05, No Iterations 15
time step continuity errors : sum local = 0.000174997, global = 6.65056e-17, cumulative = -1.74893e-15
ExecutionTime = 0.06 s  ClockTime = 0 s

Time = 57

smoothSolver:  Solving for Ux, Initial residual = 2.19728e-05, Final residual = 6.66634e-06, No Iterations 2
smoothSolver:  Solving for Uy, Initial residual = 2.94708e-05, Final residual = 8.0137e-06, No Iterations 2
DICPCG:  Solving for p, Initial residual = 0.00134315, Final residual = 6.49961e-05, No Iterations 17
time step continuity errors : sum local = 0.000161006, global = -8.42401e-17, cumulative = -1.83317e-15
ExecutionTime = 0.06 s  ClockTime = 0 s

Time = 58

smoothSolver:  Solving for Ux, Initial residual = 1.12402e-05, Final residual = 4.58028e-06, No Iterations 1
smoothSolver:  Solving for Uy, Initial residual = 2.65879e-05, Final residual = 7.00675e-06, No Iterations 2
DICPCG:  Solving for p, Initial residual = 0.00121641, Final residual = 3.62738e-05, No Iterations 18
time step continuity errors : sum local = 9.04999e-05, global = -7.10383e-17, cumulative = -1.9042e-15
ExecutionTime = 0.06 s  ClockTime = 0 s

Time = 59

smoothSolver:  Solving for Ux, Initial residual = 1.28719e-05, Final residual = 5.75509e-06, No Iterations 1
smoothSolver:  Solving for Uy, Initial residual = 2.30008e-05, Final residual = 9.32927e-06, No Iterations 1
DICPCG:  Solving for p, Initial residual = 0.00107975, Final residual = 5.11438e-05, No Iterations 7
time step continuity errors : sum local = 0.000177473, global = 1.37775e-16, cumulative = -1.76643e-15
ExecutionTime = 0.06 s  ClockTime = 0 s

Time = 60

smoothSolver:  Solving for Ux, Initial residual = 1.55171e-05, Final residual = 7.98181e-06, No Iterations 1
smoothSolver:  Solving for Uy, Initial residual = 1.99557e-05, Final residual = 8.42027e-06, No Iterations 1
DICPCG:  Solving for p, Initial residual = 0.000951646, Final residual = 3.72064e-05, No Iterations 17
time step continuity errors : sum local = 9.22398e-05, global = -1.2689e-16, cumulative = -1.89332e-15
ExecutionTime = 0.06 s  ClockTime = 0 s

Time = 61

smoothSolver:  Solving for Ux, Initial residual = 1.59803e-05, Final residual = 8.51757e-06, No Iterations 1
smoothSolver:  Solving for Uy, Initial residual = 2.25855e-05, Final residual = 6.32477e-06, No Iterations 2
DICPCG:  Solving for p, Initial residual = 0.000880214, Final residual = 4.25378e-05, No Iterations 7
time step continuity errors : sum local = 0.000133686, global = -7.96079e-17, cumulative = -1.97293e-15
ExecutionTime = 0.06 s  ClockTime = 0 s

Time = 62

smoothSolver:  Solving for Ux, Initial residual = 1.06179e-05, Final residual = 5.4061e-06, No Iterations 1
smoothSolver:  Solving for Uy, Initial residual = 1.73795e-05, Final residual = 8.35818e-06, No Iterations 1
DICPCG:  Solving for p, Initial residual = 0.00081285, Final residual = 3.75434e-05, No Iterations 7
time step continuity errors : sum local = 0.000116968, global = 1.77381e-16, cumulative = -1.79555e-15
ExecutionTime = 0.06 s  ClockTime = 0 s

Time = 63

smoothSolver:  Solving for Ux, Initial residual = 4.94538e-06, Final residual = 4.94538e-06, No Iterations 0
smoothSolver:  Solving for Uy, Initial residual = 1.34185e-05, Final residual = 5.75667e-06, No Iterations 1
DICPCG:  Solving for p, Initial residual = 0.000727905, Final residual = 3.29346e-05, No Iterations 7
time step continuity errors : sum local = 0.00010571, global = -2.40743e-16, cumulative = -2.03629e-15
ExecutionTime = 0.06 s  ClockTime = 0 s

Time = 64

smoothSolver:  Solving for Ux, Initial residual = 7.79003e-06, Final residual = 7.79003e-06, No Iterations 0
smoothSolver:  Solving for Uy, Initial residual = 1.43643e-05, Final residual = 6.39823e-06, No Iterations 1
DICPCG:  Solving for p, Initial residual = 0.00065021, Final residual = 3.02293e-05, No Iterations 7
time step continuity errors : sum local = 0.000101185, global = -1.6312e-17, cumulative = -2.0526e-15
ExecutionTime = 0.08 s  ClockTime = 0 s

Time = 65

smoothSolver:  Solving for Ux, Initial residual = 1.20948e-05, Final residual = 6.09416e-06, No Iterations 1
smoothSolver:  Solving for Uy, Initial residual = 1.39328e-05, Final residual = 6.5501e-06, No Iterations 1
DICPCG:  Solving for p, Initial residual = 0.000584762, Final residual = 2.54428e-05, No Iterations 14
time step continuity errors : sum local = 6.3742e-05, global = -8.51996e-17, cumulative = -2.1378e-15
ExecutionTime = 0.08 s  ClockTime = 0 s

Time = 66

smoothSolver:  Solving for Ux, Initial residual = 9.7341e-06, Final residual = 9.7341e-06, No Iterations 0
smoothSolver:  Solving for Uy, Initial residual = 1.07271e-05, Final residual = 4.69609e-06, No Iterations 1
DICPCG:  Solving for p, Initial residual = 0.00053135, Final residual = 1.954e-05, No Iterations 16
time step continuity errors : sum local = 4.91178e-05, global = -3.55621e-16, cumulative = -2.49342e-15
ExecutionTime = 0.08 s  ClockTime = 0 s

Time = 67

smoothSolver:  Solving for Ux, Initial residual = 9.08992e-06, Final residual = 9.08992e-06, No Iterations 0
smoothSolver:  Solving for Uy, Initial residual = 1.0005e-05, Final residual = 4.32758e-06, No Iterations 1
DICPCG:  Solving for p, Initial residual = 0.000483314, Final residual = 2.33198e-05, No Iterations 4
time step continuity errors : sum local = 8.61967e-05, global = -7.42808e-17, cumulative = -2.5677e-15
ExecutionTime = 0.08 s  ClockTime = 0 s

Time = 68

smoothSolver:  Solving for Ux, Initial residual = 8.33013e-06, Final residual = 8.33013e-06, No Iterations 0
smoothSolver:  Solving for Uy, Initial residual = 8.17713e-06, Final residual = 8.17713e-06, No Iterations 0
DICPCG:  Solving for p, Initial residual = 0.000432942, Final residual = 1.40909e-05, No Iterations 17
time step continuity errors : sum local = 3.52705e-05, global = -1.83336e-16, cumulative = -2.75104e-15
ExecutionTime = 0.08 s  ClockTime = 0 s

Time = 69

smoothSolver:  Solving for Ux, Initial residual = 6.2083e-06, Final residual = 6.2083e-06, No Iterations 0
smoothSolver:  Solving for Uy, Initial residual = 1.15425e-05, Final residual = 4.97235e-06, No Iterations 1
DICPCG:  Solving for p, Initial residual = 0.000388774, Final residual = 1.58672e-05, No Iterations 17
time step continuity errors : sum local = 3.93996e-05, global = 1.6762e-16, cumulative = -2.58342e-15
ExecutionTime = 0.08 s  ClockTime = 0 s

Time = 70

smoothSolver:  Solving for Ux, Initial residual = 4.88319e-06, Final residual = 4.88319e-06, No Iterations 0
smoothSolver:  Solving for Uy, Initial residual = 9.49945e-06, Final residual = 9.49945e-06, No Iterations 0
DICPCG:  Solving for p, Initial residual = 0.000348073, Final residual = 1.55579e-05, No Iterations 17
time step continuity errors : sum local = 3.84999e-05, global = 2.48816e-17, cumulative = -2.55854e-15
ExecutionTime = 0.08 s  ClockTime = 0 s

Time = 71

smoothSolver:  Solving for Ux, Initial residual = 4.29954e-06, Final residual = 4.29954e-06, No Iterations 0
smoothSolver:  Solving for Uy, Initial residual = 1.02285e-05, Final residual = 4.70057e-06, No Iterations 1
DICPCG:  Solving for p, Initial residual = 0.000322529, Final residual = 1.38941e-05, No Iterations 17
time step continuity errors : sum local = 3.45036e-05, global = 1.30761e-16, cumulative = -2.42778e-15
ExecutionTime = 0.08 s  ClockTime = 0 s

Time = 72

smoothSolver:  Solving for Ux, Initial residual = 4.65966e-06, Final residual = 4.65966e-06, No Iterations 0
smoothSolver:  Solving for Uy, Initial residual = 6.8078e-06, Final residual = 6.8078e-06, No Iterations 0
DICPCG:  Solving for p, Initial residual = 0.000289684, Final residual = 1.38833e-05, No Iterations 7
time step continuity errors : sum local = 4.5987e-05, global = -1.2775e-16, cumulative = -2.55553e-15
ExecutionTime = 0.08 s  ClockTime = 0 s

Time = 73

smoothSolver:  Solving for Ux, Initial residual = 4.7205e-06, Final residual = 4.7205e-06, No Iterations 0
smoothSolver:  Solving for Uy, Initial residual = 5.46674e-06, Final residual = 5.46674e-06, No Iterations 0
DICPCG:  Solving for p, Initial residual = 0.000260053, Final residual = 1.2627e-05, No Iterations 7
time step continuity errors : sum local = 4.18617e-05, global = -9.85999e-18, cumulative = -2.56539e-15
ExecutionTime = 0.08 s  ClockTime = 0 s

Time = 74

smoothSolver:  Solving for Ux, Initial residual = 4.69996e-06, Final residual = 4.69996e-06, No Iterations 0
smoothSolver:  Solving for Uy, Initial residual = 6.31743e-06, Final residual = 6.31743e-06, No Iterations 0
DICPCG:  Solving for p, Initial residual = 0.000233462, Final residual = 8.84821e-06, No Iterations 17
time step continuity errors : sum local = 2.20241e-05, global = 9.86661e-17, cumulative = -2.46672e-15
ExecutionTime = 0.08 s  ClockTime = 0 s

Time = 75

smoothSolver:  Solving for Ux, Initial residual = 5.34644e-06, Final residual = 5.34644e-06, No Iterations 0
smoothSolver:  Solving for Uy, Initial residual = 7.36282e-06, Final residual = 7.36282e-06, No Iterations 0
DICPCG:  Solving for p, Initial residual = 0.000211021, Final residual = 9.79025e-06, No Iterations 8
time step continuity errors : sum local = 3.23128e-05, global = 8.69532e-17, cumulative = -2.37977e-15
ExecutionTime = 0.08 s  ClockTime = 0 s

Time = 76

smoothSolver:  Solving for Ux, Initial residual = 4.79702e-06, Final residual = 4.79702e-06, No Iterations 0
smoothSolver:  Solving for Uy, Initial residual = 7.67828e-06, Final residual = 7.67828e-06, No Iterations 0
DICPCG:  Solving for p, Initial residual = 0.000192049, Final residual = 8.40142e-06, No Iterations 8
time step continuity errors : sum local = 2.86712e-05, global = 2.50106e-16, cumulative = -2.12966e-15
ExecutionTime = 0.08 s  ClockTime = 0 s

Time = 77

smoothSolver:  Solving for Ux, Initial residual = 3.89086e-06, Final residual = 3.89086e-06, No Iterations 0
smoothSolver:  Solving for Uy, Initial residual = 7.69742e-06, Final residual = 7.69742e-06, No Iterations 0
DICPCG:  Solving for p, Initial residual = 0.000174402, Final residual = 7.58893e-06, No Iterations 8
time step continuity errors : sum local = 2.69165e-05, global = 2.12784e-16, cumulative = -1.91688e-15
ExecutionTime = 0.08 s  ClockTime = 0 s

Time = 78

smoothSolver:  Solving for Ux, Initial residual = 2.9311e-06, Final residual = 2.9311e-06, No Iterations 0
smoothSolver:  Solving for Uy, Initial residual = 7.42913e-06, Final residual = 7.42913e-06, No Iterations 0
DICPCG:  Solving for p, Initial residual = 0.000158418, Final residual = 7.77693e-06, No Iterations 8
time step continuity errors : sum local = 2.78228e-05, global = 9.61515e-17, cumulative = -1.82073e-15
ExecutionTime = 0.08 s  ClockTime = 0 s

Time = 79

smoothSolver:  Solving for Ux, Initial residual = 2.17304e-06, Final residual = 2.17304e-06, No Iterations 0
smoothSolver:  Solving for Uy, Initial residual = 6.91891e-06, Final residual = 6.91891e-06, No Iterations 0
DICPCG:  Solving for p, Initial residual = 0.000143861, Final residual = 6.45879e-06, No Iterations 17
time step continuity errors : sum local = 1.64177e-05, global = 1.30264e-16, cumulative = -1.69046e-15
ExecutionTime = 0.08 s  ClockTime = 0 s

Time = 80

smoothSolver:  Solving for Ux, Initial residual = 1.57604e-06, Final residual = 1.57604e-06, No Iterations 0
smoothSolver:  Solving for Uy, Initial residual = 5.28724e-06, Final residual = 5.28724e-06, No Iterations 0
DICPCG:  Solving for p, Initial residual = 0.000130644, Final residual = 5.33738e-06, No Iterations 17
time step continuity errors : sum local = 1.36674e-05, global = -1.81285e-16, cumulative = -1.87175e-15
ExecutionTime = 0.08 s  ClockTime = 0 s

Time = 81

smoothSolver:  Solving for Ux, Initial residual = 1.41958e-06, Final residual = 1.41958e-06, No Iterations 0
smoothSolver:  Solving for Uy, Initial residual = 3.49655e-06, Final residual = 3.49655e-06, No Iterations 0
DICPCG:  Solving for p, Initial residual = 0.000118658, Final residual = 4.58867e-06, No Iterations 17
time step continuity errors : sum local = 1.17382e-05, global = -1.92865e-16, cumulative = -2.06461e-15
ExecutionTime = 0.08 s  ClockTime = 0 s

Time = 82

smoothSolver:  Solving for Ux, Initial residual = 1.75318e-06, Final residual = 1.75318e-06, No Iterations 0
smoothSolver:  Solving for Uy, Initial residual = 2.43435e-06, Final residual = 2.43435e-06, No Iterations 0
DICPCG:  Solving for p, Initial residual = 0.000107177, Final residual = 4.26231e-06, No Iterations 17
time step continuity errors : sum local = 1.08087e-05, global = -1.27386e-17, cumulative = -2.07735e-15
ExecutionTime = 0.08 s  ClockTime = 0 s

Time = 83

smoothSolver:  Solving for Ux, Initial residual = 2.06662e-06, Final residual = 2.06662e-06, No Iterations 0
smoothSolver:  Solving for Uy, Initial residual = 2.73332e-06, Final residual = 2.73332e-06, No Iterations 0
DICPCG:  Solving for p, Initial residual = 9.62548e-05, Final residual = 4.07349e-06, No Iterations 17
time step continuity errors : sum local = 1.01984e-05, global = -9.22141e-17, cumulative = -2.16956e-15
ExecutionTime = 0.08 s  ClockTime = 0 s

Time = 84

smoothSolver:  Solving for Ux, Initial residual = 2.23948e-06, Final residual = 2.23948e-06, No Iterations 0
smoothSolver:  Solving for Uy, Initial residual = 3.27453e-06, Final residual = 3.27453e-06, No Iterations 0
DICPCG:  Solving for p, Initial residual = 8.63403e-05, Final residual = 4.11235e-06, No Iterations 16
time step continuity errors : sum local = 1.03806e-05, global = 9.02289e-17, cumulative = -2.07934e-15
ExecutionTime = 0.08 s  ClockTime = 0 s

Time = 85

smoothSolver:  Solving for Ux, Initial residual = 2.3115e-06, Final residual = 2.3115e-06, No Iterations 0
smoothSolver:  Solving for Uy, Initial residual = 3.83049e-06, Final residual = 3.83049e-06, No Iterations 0
DICPCG:  Solving for p, Initial residual = 7.86161e-05, Final residual = 2.86355e-06, No Iterations 17
time step continuity errors : sum local = 7.12649e-06, global = -1.73708e-17, cumulative = -2.09671e-15
ExecutionTime = 0.08 s  ClockTime = 0 s

Time = 86

smoothSolver:  Solving for Ux, Initial residual = 2.14574e-06, Final residual = 2.14574e-06, No Iterations 0
smoothSolver:  Solving for Uy, Initial residual = 3.99376e-06, Final residual = 3.99376e-06, No Iterations 0
DICPCG:  Solving for p, Initial residual = 7.1986e-05, Final residual = 3.39573e-06, No Iterations 17
time step continuity errors : sum local = 8.52954e-06, global = -9.33391e-17, cumulative = -2.19005e-15
ExecutionTime = 0.08 s  ClockTime = 0 s

Time = 87

smoothSolver:  Solving for Ux, Initial residual = 1.87291e-06, Final residual = 1.87291e-06, No Iterations 0
smoothSolver:  Solving for Uy, Initial residual = 3.70235e-06, Final residual = 3.70235e-06, No Iterations 0
DICPCG:  Solving for p, Initial residual = 6.60989e-05, Final residual = 3.08437e-06, No Iterations 7
time step continuity errors : sum local = 1.00179e-05, global = 1.78506e-16, cumulative = -2.01154e-15
ExecutionTime = 0.08 s  ClockTime = 0 s

Time = 88

smoothSolver:  Solving for Ux, Initial residual = 1.4836e-06, Final residual = 1.4836e-06, No Iterations 0
smoothSolver:  Solving for Uy, Initial residual = 3.0155e-06, Final residual = 3.0155e-06, No Iterations 0
DICPCG:  Solving for p, Initial residual = 6.06633e-05, Final residual = 2.83758e-06, No Iterations 10
time step continuity errors : sum local = 9.04196e-06, global = 1.00618e-16, cumulative = -1.91092e-15
ExecutionTime = 0.08 s  ClockTime = 0 s

Time = 89

smoothSolver:  Solving for Ux, Initial residual = 1.11795e-06, Final residual = 1.11795e-06, No Iterations 0
smoothSolver:  Solving for Uy, Initial residual = 2.32611e-06, Final residual = 2.32611e-06, No Iterations 0
DICPCG:  Solving for p, Initial residual = 5.53658e-05, Final residual = 2.54752e-06, No Iterations 10
time step continuity errors : sum local = 8.21547e-06, global = -9.05597e-17, cumulative = -2.00148e-15
ExecutionTime = 0.08 s  ClockTime = 0 s

Time = 90

smoothSolver:  Solving for Ux, Initial residual = 8.0267e-07, Final residual = 8.0267e-07, No Iterations 0
smoothSolver:  Solving for Uy, Initial residual = 1.83839e-06, Final residual = 1.83839e-06, No Iterations 0
DICPCG:  Solving for p, Initial residual = 5.05182e-05, Final residual = 2.47049e-06, No Iterations 10
time step continuity errors : sum local = 8.0165e-06, global = 1.10611e-16, cumulative = -1.89087e-15
ExecutionTime = 0.08 s  ClockTime = 0 s

Time = 91

smoothSolver:  Solving for Ux, Initial residual = 5.80529e-07, Final residual = 5.80529e-07, No Iterations 0
smoothSolver:  Solving for Uy, Initial residual = 1.75778e-06, Final residual = 1.75778e-06, No Iterations 0
DICPCG:  Solving for p, Initial residual = 4.59819e-05, Final residual = 2.14295e-06, No Iterations 17
time step continuity errors : sum local = 5.33158e-06, global = 1.11802e-16, cumulative = -1.77907e-15
ExecutionTime = 0.08 s  ClockTime = 0 s

Time = 92

smoothSolver:  Solving for Ux, Initial residual = 6.42044e-07, Final residual = 6.42044e-07, No Iterations 0
smoothSolver:  Solving for Uy, Initial residual = 1.71444e-06, Final residual = 1.71444e-06, No Iterations 0
DICPCG:  Solving for p, Initial residual = 4.16747e-05, Final residual = 2.0813e-06, No Iterations 7
time step continuity errors : sum local = 7.07566e-06, global = 2.80778e-16, cumulative = -1.49829e-15
ExecutionTime = 0.08 s  ClockTime = 0 s

Time = 93

smoothSolver:  Solving for Ux, Initial residual = 7.40967e-07, Final residual = 7.40967e-07, No Iterations 0
smoothSolver:  Solving for Uy, Initial residual = 1.89098e-06, Final residual = 1.89098e-06, No Iterations 0
DICPCG:  Solving for p, Initial residual = 3.7569e-05, Final residual = 1.60732e-06, No Iterations 17
time step continuity errors : sum local = 3.96165e-06, global = 1.00254e-17, cumulative = -1.48827e-15
ExecutionTime = 0.08 s  ClockTime = 0 s

Time = 94

smoothSolver:  Solving for Ux, Initial residual = 8.40459e-07, Final residual = 8.40459e-07, No Iterations 0
smoothSolver:  Solving for Uy, Initial residual = 1.88318e-06, Final residual = 1.88318e-06, No Iterations 0
DICPCG:  Solving for p, Initial residual = 3.38266e-05, Final residual = 1.30022e-06, No Iterations 17
time step continuity errors : sum local = 3.22842e-06, global = 3.09564e-16, cumulative = -1.1787e-15
ExecutionTime = 0.08 s  ClockTime = 0 s

Time = 95

smoothSolver:  Solving for Ux, Initial residual = 8.7413e-07, Final residual = 8.7413e-07, No Iterations 0
smoothSolver:  Solving for Uy, Initial residual = 1.9495e-06, Final residual = 1.9495e-06, No Iterations 0
DICPCG:  Solving for p, Initial residual = 3.08312e-05, Final residual = 1.12875e-06, No Iterations 17
time step continuity errors : sum local = 2.79898e-06, global = -2.82333e-16, cumulative = -1.46103e-15
ExecutionTime = 0.08 s  ClockTime = 0 s

Time = 96

smoothSolver:  Solving for Ux, Initial residual = 8.35651e-07, Final residual = 8.35651e-07, No Iterations 0
smoothSolver:  Solving for Uy, Initial residual = 1.91755e-06, Final residual = 1.91755e-06, No Iterations 0
DICPCG:  Solving for p, Initial residual = 2.82555e-05, Final residual = 1.20119e-06, No Iterations 17
time step continuity errors : sum local = 2.99185e-06, global = 1.82939e-16, cumulative = -1.2781e-15
ExecutionTime = 0.08 s  ClockTime = 0 s

Time = 97

smoothSolver:  Solving for Ux, Initial residual = 7.55068e-07, Final residual = 7.55068e-07, No Iterations 0
smoothSolver:  Solving for Uy, Initial residual = 1.81279e-06, Final residual = 1.81279e-06, No Iterations 0
DICPCG:  Solving for p, Initial residual = 2.59769e-05, Final residual = 1.24406e-06, No Iterations 17
time step continuity errors : sum local = 3.13739e-06, global = -5.79026e-18, cumulative = -1.28389e-15
ExecutionTime = 0.08 s  ClockTime = 0 s

Time = 98

smoothSolver:  Solving for Ux, Initial residual = 6.38924e-07, Final residual = 6.38924e-07, No Iterations 0
smoothSolver:  Solving for Uy, Initial residual = 1.60407e-06, Final residual = 1.60407e-06, No Iterations 0
DICPCG:  Solving for p, Initial residual = 2.38383e-05, Final residual = 1.03493e-06, No Iterations 18
time step continuity errors : sum local = 2.65574e-06, global = 1.38702e-16, cumulative = -1.14518e-15
ExecutionTime = 0.08 s  ClockTime = 0 s

Time = 99

smoothSolver:  Solving for Ux, Initial residual = 4.92194e-07, Final residual = 4.92194e-07, No Iterations 0
smoothSolver:  Solving for Uy, Initial residual = 1.35834e-06, Final residual = 1.35834e-06, No Iterations 0
DICPCG:  Solving for p, Initial residual = 2.17593e-05, Final residual = 1.02093e-06, No Iterations 19
time step continuity errors : sum local = 2.58459e-06, global = -3.84474e-17, cumulative = -1.18363e-15
ExecutionTime = 0.08 s  ClockTime = 0 s

Time = 100

smoothSolver:  Solving for Ux, Initial residual = 3.46793e-07, Final residual = 3.46793e-07, No Iterations 0
smoothSolver:  Solving for Uy, Initial residual = 1.12091e-06, Final residual = 1.12091e-06, No Iterations 0
DICPCG:  Solving for p, Initial residual = 1.98119e-05, Final residual = 9.39033e-07, No Iterations 8
time step continuity errors : sum local = 3.20829e-06, global = -1.64543e-16, cumulative = -1.34817e-15
ExecutionTime = 0.08 s  ClockTime = 0 s

Time = 101

smoothSolver:  Solving for Ux, Initial residual = 3.25095e-07, Final residual = 3.25095e-07, No Iterations 0
smoothSolver:  Solving for Uy, Initial residual = 8.66809e-07, Final residual = 8.66809e-07, No Iterations 0
DICPCG:  Solving for p, Initial residual = 1.79616e-05, Final residual = 8.32711e-07, No Iterations 8
time step continuity errors : sum local = 2.88733e-06, global = -1.95843e-16, cumulative = -1.54402e-15
ExecutionTime = 0.08 s  ClockTime = 0 s

Time = 102

smoothSolver:  Solving for Ux, Initial residual = 4.18512e-07, Final residual = 4.18512e-07, No Iterations 0
smoothSolver:  Solving for Uy, Initial residual = 6.94294e-07, Final residual = 6.94294e-07, No Iterations 0
DICPCG:  Solving for p, Initial residual = 1.62091e-05, Final residual = 7.41689e-07, No Iterations 8
time step continuity errors : sum local = 2.63276e-06, global = 2.3353e-16, cumulative = -1.31049e-15
ExecutionTime = 0.08 s  ClockTime = 0 s

Time = 103

smoothSolver:  Solving for Ux, Initial residual = 4.99926e-07, Final residual = 4.99926e-07, No Iterations 0
smoothSolver:  Solving for Uy, Initial residual = 5.76635e-07, Final residual = 5.76635e-07, No Iterations 0
DICPCG:  Solving for p, Initial residual = 1.45011e-05, Final residual = 9.69775e-07, No Iterations 7
time step continuity errors : sum local = 3.21561e-06, global = -7.91116e-17, cumulative = -1.3896e-15
ExecutionTime = 0.08 s  ClockTime = 0 s

Time = 104

smoothSolver:  Solving for Ux, Initial residual = 5.54605e-07, Final residual = 5.54605e-07, No Iterations 0
smoothSolver:  Solving for Uy, Initial residual = 5.02304e-07, Final residual = 5.02304e-07, No Iterations 0
DICPCG:  Solving for p, Initial residual = 1.30061e-05, Final residual = 9.79744e-07, No Iterations 7
time step continuity errors : sum local = 3.23929e-06, global = -2.38559e-17, cumulative = -1.41346e-15
ExecutionTime = 0.08 s  ClockTime = 0 s

Time = 105

smoothSolver:  Solving for Ux, Initial residual = 5.632e-07, Final residual = 5.632e-07, No Iterations 0
smoothSolver:  Solving for Uy, Initial residual = 4.88672e-07, Final residual = 4.88672e-07, No Iterations 0
DICPCG:  Solving for p, Initial residual = 1.18439e-05, Final residual = 9.88535e-07, No Iterations 16
time step continuity errors : sum local = 2.49129e-06, global = -2.01832e-17, cumulative = -1.43364e-15
ExecutionTime = 0.08 s  ClockTime = 0 s

Time = 106

smoothSolver:  Solving for Ux, Initial residual = 5.04839e-07, Final residual = 5.04839e-07, No Iterations 0
smoothSolver:  Solving for Uy, Initial residual = 5.99682e-07, Final residual = 5.99682e-07, No Iterations 0
DICPCG:  Solving for p, Initial residual = 1.09525e-05, Final residual = 7.57716e-07, No Iterations 16
time step continuity errors : sum local = 1.91651e-06, global = -6.38583e-17, cumulative = -1.4975e-15
ExecutionTime = 0.08 s  ClockTime = 0 s

Time = 107

smoothSolver:  Solving for Ux, Initial residual = 4.25826e-07, Final residual = 4.25826e-07, No Iterations 0
smoothSolver:  Solving for Uy, Initial residual = 6.50442e-07, Final residual = 6.50442e-07, No Iterations 0
DICPCG:  Solving for p, Initial residual = 1.01474e-05, Final residual = 9.9867e-07, No Iterations 5
time step continuity errors : sum local = 3.19601e-06, global = 1.56867e-16, cumulative = -1.34063e-15
ExecutionTime = 0.08 s  ClockTime = 0 s

Time = 108

smoothSolver:  Solving for Ux, Initial residual = 3.45856e-07, Final residual = 3.45856e-07, No Iterations 0
smoothSolver:  Solving for Uy, Initial residual = 6.03266e-07, Final residual = 6.03266e-07, No Iterations 0
DICPCG:  Solving for p, Initial residual = 9.31344e-06, Final residual = 9.16111e-07, No Iterations 7
time step continuity errors : sum local = 2.97966e-06, global = -2.48816e-17, cumulative = -1.36551e-15
ExecutionTime = 0.08 s  ClockTime = 0 s

Time = 109

smoothSolver:  Solving for Ux, Initial residual = 2.69737e-07, Final residual = 2.69737e-07, No Iterations 0
smoothSolver:  Solving for Uy, Initial residual = 5.6748e-07, Final residual = 5.6748e-07, No Iterations 0
DICPCG:  Solving for p, Initial residual = 8.62844e-06, Final residual = 8.22149e-07, No Iterations 7
time step continuity errors : sum local = 2.76691e-06, global = 2.92657e-16, cumulative = -1.07286e-15
ExecutionTime = 0.09 s  ClockTime = 0 s

Time = 110

smoothSolver:  Solving for Ux, Initial residual = 1.87749e-07, Final residual = 1.87749e-07, No Iterations 0
smoothSolver:  Solving for Uy, Initial residual = 5.56853e-07, Final residual = 5.56853e-07, No Iterations 0
DICPCG:  Solving for p, Initial residual = 7.91278e-06, Final residual = 7.74068e-07, No Iterations 7
time step continuity errors : sum local = 2.67177e-06, global = -7.23948e-17, cumulative = -1.14525e-15
ExecutionTime = 0.09 s  ClockTime = 0 s

Time = 111

smoothSolver:  Solving for Ux, Initial residual = 1.21305e-07, Final residual = 1.21305e-07, No Iterations 0
smoothSolver:  Solving for Uy, Initial residual = 5.63076e-07, Final residual = 5.63076e-07, No Iterations 0
DICPCG:  Solving for p, Initial residual = 7.22432e-06, Final residual = 7.72494e-07, No Iterations 7
time step continuity errors : sum local = 2.69556e-06, global = -1.14085e-16, cumulative = -1.25933e-15
ExecutionTime = 0.09 s  ClockTime = 0 s

Time = 112

smoothSolver:  Solving for Ux, Initial residual = 1.20981e-07, Final residual = 1.20981e-07, No Iterations 0
smoothSolver:  Solving for Uy, Initial residual = 5.61442e-07, Final residual = 5.61442e-07, No Iterations 0
DICPCG:  Solving for p, Initial residual = 6.55677e-06, Final residual = 8.24421e-07, No Iterations 7
time step continuity errors : sum local = 2.8543e-06, global = -1.92932e-16, cumulative = -1.45227e-15
ExecutionTime = 0.09 s  ClockTime = 0 s

Time = 113

smoothSolver:  Solving for Ux, Initial residual = 1.76252e-07, Final residual = 1.76252e-07, No Iterations 0
smoothSolver:  Solving for Uy, Initial residual = 5.48284e-07, Final residual = 5.48284e-07, No Iterations 0
DICPCG:  Solving for p, Initial residual = 5.90253e-06, Final residual = 8.1169e-07, No Iterations 3
time step continuity errors : sum local = 2.79278e-06, global = -6.36267e-17, cumulative = -1.51589e-15
ExecutionTime = 0.09 s  ClockTime = 0 s

Time = 114

smoothSolver:  Solving for Ux, Initial residual = 1.91102e-07, Final residual = 1.91102e-07, No Iterations 0
smoothSolver:  Solving for Uy, Initial residual = 5.24682e-07, Final residual = 5.24682e-07, No Iterations 0
DICPCG:  Solving for p, Initial residual = 5.25926e-06, Final residual = 7.27148e-07, No Iterations 3
time step continuity errors : sum local = 2.62411e-06, global = 8.3082e-17, cumulative = -1.43281e-15
ExecutionTime = 0.09 s  ClockTime = 0 s

Time = 115

smoothSolver:  Solving for Ux, Initial residual = 1.85146e-07, Final residual = 1.85146e-07, No Iterations 0
smoothSolver:  Solving for Uy, Initial residual = 5.11397e-07, Final residual = 5.11397e-07, No Iterations 0
DICPCG:  Solving for p, Initial residual = 4.75441e-06, Final residual = 7.56889e-07, No Iterations 3
time step continuity errors : sum local = 2.73303e-06, global = -4.66199e-17, cumulative = -1.47943e-15
ExecutionTime = 0.09 s  ClockTime = 0 s

Time = 116

smoothSolver:  Solving for Ux, Initial residual = 1.75901e-07, Final residual = 1.75901e-07, No Iterations 0
smoothSolver:  Solving for Uy, Initial residual = 5.21386e-07, Final residual = 5.21386e-07, No Iterations 0
DICPCG:  Solving for p, Initial residual = 4.32452e-06, Final residual = 9.02966e-07, No Iterations 3
time step continuity errors : sum local = 3.13059e-06, global = 7.70601e-17, cumulative = -1.40237e-15
ExecutionTime = 0.09 s  ClockTime = 0 s

Time = 117

smoothSolver:  Solving for Ux, Initial residual = 1.64816e-07, Final residual = 1.64816e-07, No Iterations 0
smoothSolver:  Solving for Uy, Initial residual = 5.07224e-07, Final residual = 5.07224e-07, No Iterations 0
DICPCG:  Solving for p, Initial residual = 3.95196e-06, Final residual = 9.72808e-07, No Iterations 14
time step continuity errors : sum local = 2.41844e-06, global = -1.4029e-16, cumulative = -1.54266e-15
ExecutionTime = 0.09 s  ClockTime = 0 s

Time = 118

smoothSolver:  Solving for Ux, Initial residual = 1.89416e-07, Final residual = 1.89416e-07, No Iterations 0
smoothSolver:  Solving for Uy, Initial residual = 4.6011e-07, Final residual = 4.6011e-07, No Iterations 0
DICPCG:  Solving for p, Initial residual = 3.6984e-06, Final residual = 9.73004e-07, No Iterations 3
time step continuity errors : sum local = 3.23988e-06, global = 2.81705e-16, cumulative = -1.26096e-15
ExecutionTime = 0.09 s  ClockTime = 0 s

Time = 119

smoothSolver:  Solving for Ux, Initial residual = 1.66587e-07, Final residual = 1.66587e-07, No Iterations 0
smoothSolver:  Solving for Uy, Initial residual = 3.70065e-07, Final residual = 3.70065e-07, No Iterations 0
DICPCG:  Solving for p, Initial residual = 3.45601e-06, Final residual = 8.99178e-07, No Iterations 3
time step continuity errors : sum local = 3.03939e-06, global = 1.84296e-16, cumulative = -1.07666e-15
ExecutionTime = 0.09 s  ClockTime = 0 s

Time = 120

smoothSolver:  Solving for Ux, Initial residual = 1.38081e-07, Final residual = 1.38081e-07, No Iterations 0
smoothSolver:  Solving for Uy, Initial residual = 2.80936e-07, Final residual = 2.80936e-07, No Iterations 0
DICPCG:  Solving for p, Initial residual = 3.13341e-06, Final residual = 8.75657e-07, No Iterations 3
time step continuity errors : sum local = 2.95851e-06, global = 2.465e-17, cumulative = -1.05201e-15
ExecutionTime = 0.09 s  ClockTime = 0 s

Time = 121

smoothSolver:  Solving for Ux, Initial residual = 1.39496e-07, Final residual = 1.39496e-07, No Iterations 0
smoothSolver:  Solving for Uy, Initial residual = 2.37563e-07, Final residual = 2.37563e-07, No Iterations 0
DICPCG:  Solving for p, Initial residual = 2.81458e-06, Final residual = 9.67518e-07, No Iterations 1
time step continuity errors : sum local = 3.20514e-06, global = 1.11504e-17, cumulative = -1.04086e-15
ExecutionTime = 0.09 s  ClockTime = 0 s

Time = 122

smoothSolver:  Solving for Ux, Initial residual = 1.53054e-07, Final residual = 1.53054e-07, No Iterations 0
smoothSolver:  Solving for Uy, Initial residual = 2.55206e-07, Final residual = 2.55206e-07, No Iterations 0
DICPCG:  Solving for p, Initial residual = 2.60453e-06, Final residual = 8.93101e-07, No Iterations 3
time step continuity errors : sum local = 2.9516e-06, global = -1.89755e-16, cumulative = -1.23062e-15
ExecutionTime = 0.09 s  ClockTime = 0 s

Time = 123

smoothSolver:  Solving for Ux, Initial residual = 1.51638e-07, Final residual = 1.51638e-07, No Iterations 0
smoothSolver:  Solving for Uy, Initial residual = 2.32508e-07, Final residual = 2.32508e-07, No Iterations 0
DICPCG:  Solving for p, Initial residual = 2.44151e-06, Final residual = 9.76824e-07, No Iterations 1
time step continuity errors : sum local = 3.21996e-06, global = 1.48264e-16, cumulative = -1.08235e-15
ExecutionTime = 0.09 s  ClockTime = 0 s

Time = 124

smoothSolver:  Solving for Ux, Initial residual = 1.56022e-07, Final residual = 1.56022e-07, No Iterations 0
smoothSolver:  Solving for Uy, Initial residual = 2.3314e-07, Final residual = 2.3314e-07, No Iterations 0
DICPCG:  Solving for p, Initial residual = 2.18922e-06, Final residual = 8.73158e-07, No Iterations 3
time step continuity errors : sum local = 2.83208e-06, global = 1.91906e-16, cumulative = -8.90445e-16
ExecutionTime = 0.09 s  ClockTime = 0 s

Time = 125

smoothSolver:  Solving for Ux, Initial residual = 1.42961e-07, Final residual = 1.42961e-07, No Iterations 0
smoothSolver:  Solving for Uy, Initial residual = 2.151e-07, Final residual = 2.151e-07, No Iterations 0
DICPCG:  Solving for p, Initial residual = 2.04622e-06, Final residual = 9.0851e-07, No Iterations 1
time step continuity errors : sum local = 3.03214e-06, global = -5.8399e-17, cumulative = -9.48844e-16
ExecutionTime = 0.09 s  ClockTime = 0 s

Time = 126

smoothSolver:  Solving for Ux, Initial residual = 1.46373e-07, Final residual = 1.46373e-07, No Iterations 0
smoothSolver:  Solving for Uy, Initial residual = 2.06397e-07, Final residual = 2.06397e-07, No Iterations 0
DICPCG:  Solving for p, Initial residual = 1.79826e-06, Final residual = 9.7793e-07, No Iterations 1
time step continuity errors : sum local = 3.19428e-06, global = -1.64774e-17, cumulative = -9.65322e-16
ExecutionTime = 0.09 s  ClockTime = 0 s

Time = 127

smoothSolver:  Solving for Ux, Initial residual = 1.34247e-07, Final residual = 1.34247e-07, No Iterations 0
smoothSolver:  Solving for Uy, Initial residual = 1.78312e-07, Final residual = 1.78312e-07, No Iterations 0
DICPCG:  Solving for p, Initial residual = 1.71346e-06, Final residual = 7.41372e-07, No Iterations 3
time step continuity errors : sum local = 2.44191e-06, global = 2.73962e-17, cumulative = -9.37926e-16
ExecutionTime = 0.09 s  ClockTime = 0 s

Time = 128

smoothSolver:  Solving for Ux, Initial residual = 1.1965e-07, Final residual = 1.1965e-07, No Iterations 0
smoothSolver:  Solving for Uy, Initial residual = 1.86446e-07, Final residual = 1.86446e-07, No Iterations 0
DICPCG:  Solving for p, Initial residual = 1.61951e-06, Final residual = 9.9003e-07, No Iterations 1
time step continuity errors : sum local = 3.19308e-06, global = -1.61598e-16, cumulative = -1.09952e-15
ExecutionTime = 0.09 s  ClockTime = 0 s

Time = 129

smoothSolver:  Solving for Ux, Initial residual = 1.27813e-07, Final residual = 1.27813e-07, No Iterations 0
smoothSolver:  Solving for Uy, Initial residual = 1.75985e-07, Final residual = 1.75985e-07, No Iterations 0
DICPCG:  Solving for p, Initial residual = 1.40326e-06, Final residual = 6.57525e-07, No Iterations 3
time step continuity errors : sum local = 2.22444e-06, global = 1.24176e-16, cumulative = -9.75347e-16
ExecutionTime = 0.09 s  ClockTime = 0 s

Time = 130

smoothSolver:  Solving for Ux, Initial residual = 1.13471e-07, Final residual = 1.13471e-07, No Iterations 0
smoothSolver:  Solving for Uy, Initial residual = 1.61616e-07, Final residual = 1.61616e-07, No Iterations 0
DICPCG:  Solving for p, Initial residual = 1.35098e-06, Final residual = 9.95777e-07, No Iterations 1
time step continuity errors : sum local = 3.17076e-06, global = 4.39729e-17, cumulative = -9.31374e-16
ExecutionTime = 0.09 s  ClockTime = 0 s

Time = 131

smoothSolver:  Solving for Ux, Initial residual = 1.16519e-07, Final residual = 1.16519e-07, No Iterations 0
smoothSolver:  Solving for Uy, Initial residual = 1.5858e-07, Final residual = 1.5858e-07, No Iterations 0
DICPCG:  Solving for p, Initial residual = 1.16212e-06, Final residual = 9.71244e-07, No Iterations 2
time step continuity errors : sum local = 2.98646e-06, global = -1.09486e-16, cumulative = -1.04086e-15
ExecutionTime = 0.09 s  ClockTime = 0 s

Time = 132

smoothSolver:  Solving for Ux, Initial residual = 1.18956e-07, Final residual = 1.18956e-07, No Iterations 0
smoothSolver:  Solving for Uy, Initial residual = 1.62136e-07, Final residual = 1.62136e-07, No Iterations 0
DICPCG:  Solving for p, Initial residual = 1.139e-06, Final residual = 9.25742e-07, No Iterations 1
time step continuity errors : sum local = 2.97854e-06, global = -6.05496e-18, cumulative = -1.04691e-15
ExecutionTime = 0.09 s  ClockTime = 0 s

Time = 133

smoothSolver:  Solving for Ux, Initial residual = 1.14117e-07, Final residual = 1.14117e-07, No Iterations 0
smoothSolver:  Solving for Uy, Initial residual = 1.56622e-07, Final residual = 1.56622e-07, No Iterations 0
DICPCG:  Solving for p, Initial residual = 9.78245e-07, Final residual = 9.78245e-07, No Iterations 0
time step continuity errors : sum local = 3.10575e-06, global = 6.36929e-17, cumulative = -9.83222e-16
ExecutionTime = 0.11 s  ClockTime = 0 s

Time = 134

smoothSolver:  Solving for Ux, Initial residual = 1.15389e-07, Final residual = 1.15389e-07, No Iterations 0
smoothSolver:  Solving for Uy, Initial residual = 1.74456e-07, Final residual = 1.74456e-07, No Iterations 0
DICPCG:  Solving for p, Initial residual = 1.13249e-06, Final residual = 9.89114e-07, No Iterations 1
time step continuity errors : sum local = 3.12657e-06, global = 2.72308e-17, cumulative = -9.55991e-16
ExecutionTime = 0.11 s  ClockTime = 0 s

Time = 135

smoothSolver:  Solving for Ux, Initial residual = 1.15249e-07, Final residual = 1.15249e-07, No Iterations 0
smoothSolver:  Solving for Uy, Initial residual = 1.66614e-07, Final residual = 1.66614e-07, No Iterations 0
DICPCG:  Solving for p, Initial residual = 8.8119e-07, Final residual = 8.8119e-07, No Iterations 0
time step continuity errors : sum local = 2.87115e-06, global = -1.63219e-16, cumulative = -1.11921e-15
ExecutionTime = 0.11 s  ClockTime = 0 s

Time = 136

smoothSolver:  Solving for Ux, Initial residual = 1.05887e-07, Final residual = 1.05887e-07, No Iterations 0
smoothSolver:  Solving for Uy, Initial residual = 1.55323e-07, Final residual = 1.55323e-07, No Iterations 0
DICPCG:  Solving for p, Initial residual = 1.02489e-06, Final residual = 9.37018e-07, No Iterations 2
time step continuity errors : sum local = 2.91696e-06, global = 1.0985e-17, cumulative = -1.10823e-15
ExecutionTime = 0.11 s  ClockTime = 0 s

Time = 137

smoothSolver:  Solving for Ux, Initial residual = 1.01154e-07, Final residual = 1.01154e-07, No Iterations 0
smoothSolver:  Solving for Uy, Initial residual = 1.68226e-07, Final residual = 1.68226e-07, No Iterations 0
DICPCG:  Solving for p, Initial residual = 8.37652e-07, Final residual = 8.37652e-07, No Iterations 0
time step continuity errors : sum local = 2.75069e-06, global = -2.42529e-17, cumulative = -1.13248e-15
ExecutionTime = 0.11 s  ClockTime = 0 s

Time = 138

smoothSolver:  Solving for Ux, Initial residual = 9.5204e-08, Final residual = 9.5204e-08, No Iterations 0
smoothSolver:  Solving for Uy, Initial residual = 1.49641e-07, Final residual = 1.49641e-07, No Iterations 0
DICPCG:  Solving for p, Initial residual = 8.55541e-07, Final residual = 8.55541e-07, No Iterations 0
time step continuity errors : sum local = 2.79383e-06, global = 3.40798e-17, cumulative = -1.0984e-15
ExecutionTime = 0.11 s  ClockTime = 0 s

Time = 139

smoothSolver:  Solving for Ux, Initial residual = 8.99525e-08, Final residual = 8.99525e-08, No Iterations 0
smoothSolver:  Solving for Uy, Initial residual = 1.40319e-07, Final residual = 1.40319e-07, No Iterations 0
DICPCG:  Solving for p, Initial residual = 8.783e-07, Final residual = 8.783e-07, No Iterations 0
time step continuity errors : sum local = 2.84998e-06, global = -3.00763e-17, cumulative = -1.12847e-15
ExecutionTime = 0.11 s  ClockTime = 0 s

Time = 140

smoothSolver:  Solving for Ux, Initial residual = 8.9029e-08, Final residual = 8.9029e-08, No Iterations 0
smoothSolver:  Solving for Uy, Initial residual = 1.36241e-07, Final residual = 1.36241e-07, No Iterations 0
DICPCG:  Solving for p, Initial residual = 8.52943e-07, Final residual = 8.52943e-07, No Iterations 0
time step continuity errors : sum local = 2.78728e-06, global = 8.73503e-18, cumulative = -1.11974e-15
ExecutionTime = 0.11 s  ClockTime = 0 s

Time = 141

smoothSolver:  Solving for Ux, Initial residual = 8.98075e-08, Final residual = 8.98075e-08, No Iterations 0
smoothSolver:  Solving for Uy, Initial residual = 1.34297e-07, Final residual = 1.34297e-07, No Iterations 0
DICPCG:  Solving for p, Initial residual = 8.86261e-07, Final residual = 8.86261e-07, No Iterations 0
time step continuity errors : sum local = 2.87013e-06, global = 9.2181e-17, cumulative = -1.02756e-15
ExecutionTime = 0.11 s  ClockTime = 0 s

Time = 142

smoothSolver:  Solving for Ux, Initial residual = 9.3422e-08, Final residual = 9.3422e-08, No Iterations 0
smoothSolver:  Solving for Uy, Initial residual = 1.33177e-07, Final residual = 1.33177e-07, No Iterations 0
DICPCG:  Solving for p, Initial residual = 9.67265e-07, Final residual = 9.67265e-07, No Iterations 0
time step continuity errors : sum local = 3.07122e-06, global = 6.1443e-17, cumulative = -9.66116e-16
ExecutionTime = 0.11 s  ClockTime = 0 s

Time = 143

smoothSolver:  Solving for Ux, Initial residual = 9.98563e-08, Final residual = 9.98563e-08, No Iterations 0
smoothSolver:  Solving for Uy, Initial residual = 1.3451e-07, Final residual = 1.3451e-07, No Iterations 0
DICPCG:  Solving for p, Initial residual = 1.058e-06, Final residual = 8.43967e-07, No Iterations 4
time step continuity errors : sum local = 2.81066e-06, global = 5.93585e-17, cumulative = -9.06757e-16
ExecutionTime = 0.11 s  ClockTime = 0 s

Time = 144

smoothSolver:  Solving for Ux, Initial residual = 8.80094e-08, Final residual = 8.80094e-08, No Iterations 0
smoothSolver:  Solving for Uy, Initial residual = 1.88461e-07, Final residual = 1.88461e-07, No Iterations 0
DICPCG:  Solving for p, Initial residual = 9.1795e-07, Final residual = 9.1795e-07, No Iterations 0
time step continuity errors : sum local = 2.96191e-06, global = 2.63374e-17, cumulative = -8.8042e-16
ExecutionTime = 0.11 s  ClockTime = 0 s

Time = 145

smoothSolver:  Solving for Ux, Initial residual = 7.42633e-08, Final residual = 7.42633e-08, No Iterations 0
smoothSolver:  Solving for Uy, Initial residual = 1.68231e-07, Final residual = 1.68231e-07, No Iterations 0
DICPCG:  Solving for p, Initial residual = 9.52131e-07, Final residual = 9.52131e-07, No Iterations 0
time step continuity errors : sum local = 3.04794e-06, global = -1.06243e-16, cumulative = -9.86663e-16
ExecutionTime = 0.11 s  ClockTime = 0 s

Time = 146

smoothSolver:  Solving for Ux, Initial residual = 7.19724e-08, Final residual = 7.19724e-08, No Iterations 0
smoothSolver:  Solving for Uy, Initial residual = 1.50971e-07, Final residual = 1.50971e-07, No Iterations 0
DICPCG:  Solving for p, Initial residual = 9.31502e-07, Final residual = 9.31502e-07, No Iterations 0
time step continuity errors : sum local = 2.99773e-06, global = -1.78671e-17, cumulative = -1.00453e-15
ExecutionTime = 0.11 s  ClockTime = 0 s

Time = 147

smoothSolver:  Solving for Ux, Initial residual = 7.61602e-08, Final residual = 7.61602e-08, No Iterations 0
smoothSolver:  Solving for Uy, Initial residual = 1.45971e-07, Final residual = 1.45971e-07, No Iterations 0
DICPCG:  Solving for p, Initial residual = 9.30364e-07, Final residual = 9.30364e-07, No Iterations 0
time step continuity errors : sum local = 2.99558e-06, global = -5.85975e-17, cumulative = -1.06313e-15
ExecutionTime = 0.11 s  ClockTime = 0 s

Time = 148

smoothSolver:  Solving for Ux, Initial residual = 8.68192e-08, Final residual = 8.68192e-08, No Iterations 0
smoothSolver:  Solving for Uy, Initial residual = 1.44625e-07, Final residual = 1.44625e-07, No Iterations 0
DICPCG:  Solving for p, Initial residual = 1.04959e-06, Final residual = 8.97957e-07, No Iterations 1
time step continuity errors : sum local = 2.93142e-06, global = -9.16847e-17, cumulative = -1.15481e-15
ExecutionTime = 0.11 s  ClockTime = 0 s

Time = 149

smoothSolver:  Solving for Ux, Initial residual = 7.99017e-08, Final residual = 7.99017e-08, No Iterations 0
smoothSolver:  Solving for Uy, Initial residual = 1.50407e-07, Final residual = 1.50407e-07, No Iterations 0
DICPCG:  Solving for p, Initial residual = 8.15728e-07, Final residual = 8.15728e-07, No Iterations 0
time step continuity errors : sum local = 2.71966e-06, global = -1.34664e-17, cumulative = -1.16828e-15
ExecutionTime = 0.11 s  ClockTime = 0 s

Time = 150

smoothSolver:  Solving for Ux, Initial residual = 4.61291e-08, Final residual = 4.61291e-08, No Iterations 0
smoothSolver:  Solving for Uy, Initial residual = 1.5399e-07, Final residual = 1.5399e-07, No Iterations 0
DICPCG:  Solving for p, Initial residual = 8.84549e-07, Final residual = 8.84549e-07, No Iterations 0
time step continuity errors : sum local = 2.89146e-06, global = -4.00686e-17, cumulative = -1.20835e-15
ExecutionTime = 0.11 s  ClockTime = 0 s

Time = 151

smoothSolver:  Solving for Ux, Initial residual = 4.48405e-08, Final residual = 4.48405e-08, No Iterations 0
smoothSolver:  Solving for Uy, Initial residual = 1.30009e-07, Final residual = 1.30009e-07, No Iterations 0
DICPCG:  Solving for p, Initial residual = 8.83479e-07, Final residual = 8.83479e-07, No Iterations 0
time step continuity errors : sum local = 2.88975e-06, global = 2.1424e-16, cumulative = -9.94108e-16
ExecutionTime = 0.11 s  ClockTime = 0 s

Time = 152

smoothSolver:  Solving for Ux, Initial residual = 5.04273e-08, Final residual = 5.04273e-08, No Iterations 0
smoothSolver:  Solving for Uy, Initial residual = 1.17606e-07, Final residual = 1.17606e-07, No Iterations 0
DICPCG:  Solving for p, Initial residual = 8.51745e-07, Final residual = 8.51745e-07, No Iterations 0
time step continuity errors : sum local = 2.81185e-06, global = 8.56297e-17, cumulative = -9.08478e-16
ExecutionTime = 0.11 s  ClockTime = 0 s

Time = 153

smoothSolver:  Solving for Ux, Initial residual = 5.87931e-08, Final residual = 5.87931e-08, No Iterations 0
smoothSolver:  Solving for Uy, Initial residual = 1.10104e-07, Final residual = 1.10104e-07, No Iterations 0
DICPCG:  Solving for p, Initial residual = 8.97919e-07, Final residual = 8.97919e-07, No Iterations 0
time step continuity errors : sum local = 2.92685e-06, global = 2.15629e-16, cumulative = -6.92848e-16
ExecutionTime = 0.11 s  ClockTime = 0 s

Time = 154

smoothSolver:  Solving for Ux, Initial residual = 7.01604e-08, Final residual = 7.01604e-08, No Iterations 0
smoothSolver:  Solving for Uy, Initial residual = 1.08559e-07, Final residual = 1.08559e-07, No Iterations 0
DICPCG:  Solving for p, Initial residual = 9.82658e-07, Final residual = 9.82658e-07, No Iterations 0
time step continuity errors : sum local = 3.1373e-06, global = -1.23482e-16, cumulative = -8.1633e-16
ExecutionTime = 0.11 s  ClockTime = 0 s

Time = 155

smoothSolver:  Solving for Ux, Initial residual = 8.42892e-08, Final residual = 8.42892e-08, No Iterations 0
smoothSolver:  Solving for Uy, Initial residual = 1.11561e-07, Final residual = 1.11561e-07, No Iterations 0
DICPCG:  Solving for p, Initial residual = 1.03653e-06, Final residual = 8.84051e-07, No Iterations 1
time step continuity errors : sum local = 2.91123e-06, global = 1.10644e-16, cumulative = -7.05686e-16
ExecutionTime = 0.11 s  ClockTime = 0 s

Time = 156

smoothSolver:  Solving for Ux, Initial residual = 8.17896e-08, Final residual = 8.17896e-08, No Iterations 0
smoothSolver:  Solving for Uy, Initial residual = 1.31317e-07, Final residual = 1.31317e-07, No Iterations 0
DICPCG:  Solving for p, Initial residual = 8.33151e-07, Final residual = 8.33151e-07, No Iterations 0
time step continuity errors : sum local = 2.77423e-06, global = -1.0257e-18, cumulative = -7.06712e-16
ExecutionTime = 0.11 s  ClockTime = 0 s

Time = 157

smoothSolver:  Solving for Ux, Initial residual = 5.28665e-08, Final residual = 5.28665e-08, No Iterations 0
smoothSolver:  Solving for Uy, Initial residual = 1.2077e-07, Final residual = 1.2077e-07, No Iterations 0
DICPCG:  Solving for p, Initial residual = 8.79824e-07, Final residual = 8.79824e-07, No Iterations 0
time step continuity errors : sum local = 2.89098e-06, global = -1.85388e-16, cumulative = -8.921e-16
ExecutionTime = 0.11 s  ClockTime = 0 s

Time = 158

smoothSolver:  Solving for Ux, Initial residual = 5.43395e-08, Final residual = 5.43395e-08, No Iterations 0
smoothSolver:  Solving for Uy, Initial residual = 1.01304e-07, Final residual = 1.01304e-07, No Iterations 0
DICPCG:  Solving for p, Initial residual = 8.66379e-07, Final residual = 8.66379e-07, No Iterations 0
time step continuity errors : sum local = 2.85842e-06, global = 1.51672e-16, cumulative = -7.40428e-16
ExecutionTime = 0.12 s  ClockTime = 0 s

Time = 159

smoothSolver:  Solving for Ux, Initial residual = 6.00918e-08, Final residual = 6.00918e-08, No Iterations 0
smoothSolver:  Solving for Uy, Initial residual = 9.16199e-08, Final residual = 9.16199e-08, No Iterations 0
DICPCG:  Solving for p, Initial residual = 8.48687e-07, Final residual = 8.48687e-07, No Iterations 0
time step continuity errors : sum local = 2.81513e-06, global = -1.63087e-16, cumulative = -9.03515e-16
ExecutionTime = 0.12 s  ClockTime = 0 s

Time = 160

smoothSolver:  Solving for Ux, Initial residual = 7.00587e-08, Final residual = 7.00587e-08, No Iterations 0
smoothSolver:  Solving for Uy, Initial residual = 8.76676e-08, Final residual = 8.76676e-08, No Iterations 0
DICPCG:  Solving for p, Initial residual = 9.17004e-07, Final residual = 9.17004e-07, No Iterations 0
time step continuity errors : sum local = 2.98482e-06, global = 1.48429e-16, cumulative = -7.55085e-16
ExecutionTime = 0.12 s  ClockTime = 0 s

Time = 161

smoothSolver:  Solving for Ux, Initial residual = 8.25526e-08, Final residual = 8.25526e-08, No Iterations 0
smoothSolver:  Solving for Uy, Initial residual = 9.2045e-08, Final residual = 9.2045e-08, No Iterations 0
DICPCG:  Solving for p, Initial residual = 9.76586e-07, Final residual = 9.76586e-07, No Iterations 0
time step continuity errors : sum local = 3.13277e-06, global = -1.82774e-16, cumulative = -9.37859e-16
ExecutionTime = 0.12 s  ClockTime = 0 s

Time = 162

smoothSolver:  Solving for Ux, Initial residual = 9.91025e-08, Final residual = 9.91025e-08, No Iterations 0
smoothSolver:  Solving for Uy, Initial residual = 9.83344e-08, Final residual = 9.83344e-08, No Iterations 0
DICPCG:  Solving for p, Initial residual = 1.01999e-06, Final residual = 8.61528e-07, No Iterations 1
time step continuity errors : sum local = 2.86705e-06, global = 1.77678e-17, cumulative = -9.20091e-16
ExecutionTime = 0.12 s  ClockTime = 0 s

Time = 163

smoothSolver:  Solving for Ux, Initial residual = 9.3682e-08, Final residual = 9.3682e-08, No Iterations 0
smoothSolver:  Solving for Uy, Initial residual = 1.22065e-07, Final residual = 1.22065e-07, No Iterations 0
DICPCG:  Solving for p, Initial residual = 7.90513e-07, Final residual = 7.90513e-07, No Iterations 0
time step continuity errors : sum local = 2.67705e-06, global = 1.41779e-16, cumulative = -7.78313e-16
ExecutionTime = 0.12 s  ClockTime = 0 s

Time = 164

smoothSolver:  Solving for Ux, Initial residual = 4.62227e-08, Final residual = 4.62227e-08, No Iterations 0
smoothSolver:  Solving for Uy, Initial residual = 1.08585e-07, Final residual = 1.08585e-07, No Iterations 0
DICPCG:  Solving for p, Initial residual = 8.14106e-07, Final residual = 8.14106e-07, No Iterations 0
time step continuity errors : sum local = 2.73621e-06, global = 1.14813e-16, cumulative = -6.635e-16
ExecutionTime = 0.12 s  ClockTime = 0 s

Time = 165

smoothSolver:  Solving for Ux, Initial residual = 4.22256e-08, Final residual = 4.22256e-08, No Iterations 0
smoothSolver:  Solving for Uy, Initial residual = 8.9916e-08, Final residual = 8.9916e-08, No Iterations 0
DICPCG:  Solving for p, Initial residual = 8.1019e-07, Final residual = 8.1019e-07, No Iterations 0
time step continuity errors : sum local = 2.72693e-06, global = -8.96995e-17, cumulative = -7.532e-16
ExecutionTime = 0.12 s  ClockTime = 0 s

Time = 166

smoothSolver:  Solving for Ux, Initial residual = 4.29663e-08, Final residual = 4.29663e-08, No Iterations 0
smoothSolver:  Solving for Uy, Initial residual = 7.8117e-08, Final residual = 7.8117e-08, No Iterations 0
[...]
ExecutionTime = 0.6 s  ClockTime = 0 s

Time = 960

smoothSolver:  Solving for Ux, Initial residual = 1.64391e-07, Final residual = 1.64391e-07, No Iterations 0
smoothSolver:  Solving for Uy, Initial residual = 9.13245e-08, Final residual = 9.13245e-08, No Iterations 0
DICPCG:  Solving for p, Initial residual = 8.12401e-07, Final residual = 8.12401e-07, No Iterations 0
time step continuity errors : sum local = 2.68453e-06, global = 1.02637e-16, cumulative = 2.8316e-15
ExecutionTime = 0.6 s  ClockTime = 0 s

Time = 961

smoothSolver:  Solving for Ux, Initial residual = 2.05033e-07, Final residual = 2.05033e-07, No Iterations 0
smoothSolver:  Solving for Uy, Initial residual = 9.99842e-08, Final residual = 9.99842e-08, No Iterations 0
DICPCG:  Solving for p, Initial residual = 9.22565e-07, Final residual = 9.22565e-07, No Iterations 0
time step continuity errors : sum local = 2.95746e-06, global = 1.58653e-16, cumulative = 2.99026e-15
ExecutionTime = 0.6 s  ClockTime = 0 s

Time = 962

smoothSolver:  Solving for Ux, Initial residual = 2.5669e-07, Final residual = 2.5669e-07, No Iterations 0
smoothSolver:  Solving for Uy, Initial residual = 1.15578e-07, Final residual = 1.15578e-07, No Iterations 0
DICPCG:  Solving for p, Initial residual = 1.06152e-06, Final residual = 3.50571e-07, No Iterations 1
time step continuity errors : sum local = 1.53932e-06, global = 1.49984e-16, cumulative = 3.14024e-15
ExecutionTime = 0.6 s  ClockTime = 0 s

Time = 963

smoothSolver:  Solving for Ux, Initial residual = 2.50745e-07, Final residual = 2.50745e-07, No Iterations 0
smoothSolver:  Solving for Uy, Initial residual = 1.48956e-07, Final residual = 1.48956e-07, No Iterations 0
DICPCG:  Solving for p, Initial residual = 7.20492e-07, Final residual = 7.20492e-07, No Iterations 0
time step continuity errors : sum local = 2.45664e-06, global = 1.10511e-16, cumulative = 3.25075e-15
ExecutionTime = 0.6 s  ClockTime = 0 s

Time = 964

smoothSolver:  Solving for Ux, Initial residual = 2.18314e-07, Final residual = 2.18314e-07, No Iterations 0
smoothSolver:  Solving for Uy, Initial residual = 1.5291e-07, Final residual = 1.5291e-07, No Iterations 0
DICPCG:  Solving for p, Initial residual = 9.69646e-07, Final residual = 9.69646e-07, No Iterations 0
time step continuity errors : sum local = 3.07391e-06, global = 2.3214e-16, cumulative = 3.48289e-15
ExecutionTime = 0.6 s  ClockTime = 0 s

Time = 965

smoothSolver:  Solving for Ux, Initial residual = 2.49505e-07, Final residual = 2.49505e-07, No Iterations 0
smoothSolver:  Solving for Uy, Initial residual = 1.52514e-07, Final residual = 1.52514e-07, No Iterations 0
DICPCG:  Solving for p, Initial residual = 1.2344e-06, Final residual = 3.6075e-07, No Iterations 1
time step continuity errors : sum local = 1.56433e-06, global = -1.81285e-16, cumulative = 3.30161e-15
ExecutionTime = 0.6 s  ClockTime = 0 s

Time = 966

smoothSolver:  Solving for Ux, Initial residual = 2.45895e-07, Final residual = 2.45895e-07, No Iterations 0
smoothSolver:  Solving for Uy, Initial residual = 1.70173e-07, Final residual = 1.70173e-07, No Iterations 0
DICPCG:  Solving for p, Initial residual = 6.61909e-07, Final residual = 6.61909e-07, No Iterations 0
time step continuity errors : sum local = 2.31128e-06, global = 7.87477e-17, cumulative = 3.38035e-15
ExecutionTime = 0.6 s  ClockTime = 0 s

Time = 967

smoothSolver:  Solving for Ux, Initial residual = 1.83496e-07, Final residual = 1.83496e-07, No Iterations 0
smoothSolver:  Solving for Uy, Initial residual = 1.64396e-07, Final residual = 1.64396e-07, No Iterations 0
DICPCG:  Solving for p, Initial residual = 8.01792e-07, Final residual = 8.01792e-07, No Iterations 0
time step continuity errors : sum local = 2.65781e-06, global = 2.00178e-17, cumulative = 3.40037e-15
ExecutionTime = 0.6 s  ClockTime = 0 s

Time = 968

smoothSolver:  Solving for Ux, Initial residual = 1.94229e-07, Final residual = 1.94229e-07, No Iterations 0
smoothSolver:  Solving for Uy, Initial residual = 1.47805e-07, Final residual = 1.47805e-07, No Iterations 0
DICPCG:  Solving for p, Initial residual = 1.10482e-06, Final residual = 3.45344e-07, No Iterations 1
time step continuity errors : sum local = 1.52593e-06, global = 4.66199e-17, cumulative = 3.44699e-15
ExecutionTime = 0.6 s  ClockTime = 0 s

Time = 969

smoothSolver:  Solving for Ux, Initial residual = 1.8651e-07, Final residual = 1.8651e-07, No Iterations 0
smoothSolver:  Solving for Uy, Initial residual = 1.50493e-07, Final residual = 1.50493e-07, No Iterations 0
DICPCG:  Solving for p, Initial residual = 6.81694e-07, Final residual = 6.81694e-07, No Iterations 0
time step continuity errors : sum local = 2.36007e-06, global = -1.25698e-16, cumulative = 3.32129e-15
ExecutionTime = 0.62 s  ClockTime = 0 s

Time = 970

smoothSolver:  Solving for Ux, Initial residual = 1.18491e-07, Final residual = 1.18491e-07, No Iterations 0
smoothSolver:  Solving for Uy, Initial residual = 1.39603e-07, Final residual = 1.39603e-07, No Iterations 0
DICPCG:  Solving for p, Initial residual = 6.98654e-07, Final residual = 6.98654e-07, No Iterations 0
time step continuity errors : sum local = 2.40206e-06, global = 3.47417e-18, cumulative = 3.32477e-15
ExecutionTime = 0.62 s  ClockTime = 0 s

Time = 971

smoothSolver:  Solving for Ux, Initial residual = 1.27543e-07, Final residual = 1.27543e-07, No Iterations 0
smoothSolver:  Solving for Uy, Initial residual = 1.13026e-07, Final residual = 1.13026e-07, No Iterations 0
DICPCG:  Solving for p, Initial residual = 8.21915e-07, Final residual = 8.21915e-07, No Iterations 0
time step continuity errors : sum local = 2.70743e-06, global = 2.40478e-16, cumulative = 3.56525e-15
ExecutionTime = 0.62 s  ClockTime = 0 s

Time = 972

smoothSolver:  Solving for Ux, Initial residual = 1.68459e-07, Final residual = 1.68459e-07, No Iterations 0
smoothSolver:  Solving for Uy, Initial residual = 9.94856e-08, Final residual = 9.94856e-08, No Iterations 0
DICPCG:  Solving for p, Initial residual = 1.02709e-06, Final residual = 3.42614e-07, No Iterations 1
time step continuity errors : sum local = 1.51893e-06, global = -1.4201e-16, cumulative = 3.42324e-15
ExecutionTime = 0.62 s  ClockTime = 0 s

Time = 973

smoothSolver:  Solving for Ux, Initial residual = 1.49566e-07, Final residual = 1.49566e-07, No Iterations 0
smoothSolver:  Solving for Uy, Initial residual = 1.0048e-07, Final residual = 1.0048e-07, No Iterations 0
DICPCG:  Solving for p, Initial residual = 6.62028e-07, Final residual = 6.62028e-07, No Iterations 0
time step continuity errors : sum local = 2.31111e-06, global = -1.03497e-16, cumulative = 3.31974e-15
ExecutionTime = 0.62 s  ClockTime = 0 s

Time = 974

smoothSolver:  Solving for Ux, Initial residual = 1.39165e-07, Final residual = 1.39165e-07, No Iterations 0
smoothSolver:  Solving for Uy, Initial residual = 1.01716e-07, Final residual = 1.01716e-07, No Iterations 0
DICPCG:  Solving for p, Initial residual = 7.49346e-07, Final residual = 7.49346e-07, No Iterations 0
time step continuity errors : sum local = 2.52742e-06, global = -1.36816e-16, cumulative = 3.18292e-15
ExecutionTime = 0.62 s  ClockTime = 0 s

Time = 975

smoothSolver:  Solving for Ux, Initial residual = 1.73953e-07, Final residual = 1.73953e-07, No Iterations 0
smoothSolver:  Solving for Uy, Initial residual = 9.06015e-08, Final residual = 9.06015e-08, No Iterations 0
DICPCG:  Solving for p, Initial residual = 8.40693e-07, Final residual = 8.40693e-07, No Iterations 0
time step continuity errors : sum local = 2.75371e-06, global = 5.32704e-18, cumulative = 3.18825e-15
ExecutionTime = 0.62 s  ClockTime = 0 s

Time = 976

smoothSolver:  Solving for Ux, Initial residual = 2.19548e-07, Final residual = 2.19548e-07, No Iterations 0
smoothSolver:  Solving for Uy, Initial residual = 1.0285e-07, Final residual = 1.0285e-07, No Iterations 0
DICPCG:  Solving for p, Initial residual = 9.48079e-07, Final residual = 9.48079e-07, No Iterations 0
time step continuity errors : sum local = 3.01976e-06, global = 1.75197e-16, cumulative = 3.36345e-15
ExecutionTime = 0.62 s  ClockTime = 0 s

Time = 977

smoothSolver:  Solving for Ux, Initial residual = 2.76865e-07, Final residual = 2.76865e-07, No Iterations 0
smoothSolver:  Solving for Uy, Initial residual = 1.22123e-07, Final residual = 1.22123e-07, No Iterations 0
DICPCG:  Solving for p, Initial residual = 1.11548e-06, Final residual = 3.57717e-07, No Iterations 1
time step continuity errors : sum local = 1.55612e-06, global = -6.32959e-17, cumulative = 3.30015e-15
ExecutionTime = 0.62 s  ClockTime = 0 s

Time = 978

smoothSolver:  Solving for Ux, Initial residual = 2.65431e-07, Final residual = 2.65431e-07, No Iterations 0
smoothSolver:  Solving for Uy, Initial residual = 1.58854e-07, Final residual = 1.58854e-07, No Iterations 0
DICPCG:  Solving for p, Initial residual = 7.6472e-07, Final residual = 7.6472e-07, No Iterations 0
time step continuity errors : sum local = 2.5653e-06, global = 3.50063e-17, cumulative = 3.33516e-15
ExecutionTime = 0.62 s  ClockTime = 0 s

Time = 979

smoothSolver:  Solving for Ux, Initial residual = 2.33539e-07, Final residual = 2.33539e-07, No Iterations 0
smoothSolver:  Solving for Uy, Initial residual = 1.63437e-07, Final residual = 1.63437e-07, No Iterations 0
DICPCG:  Solving for p, Initial residual = 1.01109e-06, Final residual = 3.45435e-07, No Iterations 1
time step continuity errors : sum local = 1.52548e-06, global = 1.03497e-16, cumulative = 3.43865e-15
ExecutionTime = 0.62 s  ClockTime = 0 s

Time = 980

smoothSolver:  Solving for Ux, Initial residual = 2.06405e-07, Final residual = 2.06405e-07, No Iterations 0
smoothSolver:  Solving for Uy, Initial residual = 1.70728e-07, Final residual = 1.70728e-07, No Iterations 0
DICPCG:  Solving for p, Initial residual = 7.07835e-07, Final residual = 7.07835e-07, No Iterations 0
time step continuity errors : sum local = 2.42416e-06, global = -2.03023e-16, cumulative = 3.23563e-15
ExecutionTime = 0.62 s  ClockTime = 0 s

Time = 981

smoothSolver:  Solving for Ux, Initial residual = 1.5359e-07, Final residual = 1.5359e-07, No Iterations 0
smoothSolver:  Solving for Uy, Initial residual = 1.56029e-07, Final residual = 1.56029e-07, No Iterations 0
DICPCG:  Solving for p, Initial residual = 7.83061e-07, Final residual = 7.83061e-07, No Iterations 0
time step continuity errors : sum local = 2.6105e-06, global = -1.09287e-16, cumulative = 3.12634e-15
ExecutionTime = 0.62 s  ClockTime = 0 s

Time = 982

smoothSolver:  Solving for Ux, Initial residual = 1.57387e-07, Final residual = 1.57387e-07, No Iterations 0
smoothSolver:  Solving for Uy, Initial residual = 1.32904e-07, Final residual = 1.32904e-07, No Iterations 0
DICPCG:  Solving for p, Initial residual = 8.91377e-07, Final residual = 8.91377e-07, No Iterations 0
time step continuity errors : sum local = 2.87884e-06, global = -6.49502e-17, cumulative = 3.06139e-15
ExecutionTime = 0.62 s  ClockTime = 0 s

Time = 983

smoothSolver:  Solving for Ux, Initial residual = 1.71455e-07, Final residual = 1.71455e-07, No Iterations 0
smoothSolver:  Solving for Uy, Initial residual = 1.19188e-07, Final residual = 1.19188e-07, No Iterations 0
DICPCG:  Solving for p, Initial residual = 1.09282e-06, Final residual = 3.45265e-07, No Iterations 1
time step continuity errors : sum local = 1.52481e-06, global = 6.40238e-17, cumulative = 3.12542e-15
ExecutionTime = 0.62 s  ClockTime = 0 s

Time = 984

smoothSolver:  Solving for Ux, Initial residual = 1.86082e-07, Final residual = 1.86082e-07, No Iterations 0
smoothSolver:  Solving for Uy, Initial residual = 1.2531e-07, Final residual = 1.2531e-07, No Iterations 0
DICPCG:  Solving for p, Initial residual = 7.48863e-07, Final residual = 7.48863e-07, No Iterations 0
time step continuity errors : sum local = 2.52557e-06, global = -1.37742e-16, cumulative = 2.98767e-15
ExecutionTime = 0.62 s  ClockTime = 0 s

Time = 985

smoothSolver:  Solving for Ux, Initial residual = 1.34184e-07, Final residual = 1.34184e-07, No Iterations 0
smoothSolver:  Solving for Uy, Initial residual = 1.26108e-07, Final residual = 1.26108e-07, No Iterations 0
DICPCG:  Solving for p, Initial residual = 9.19445e-07, Final residual = 9.19445e-07, No Iterations 0
time step continuity errors : sum local = 2.94816e-06, global = -1.69407e-17, cumulative = 2.97073e-15
ExecutionTime = 0.62 s  ClockTime = 0 s

Time = 986

smoothSolver:  Solving for Ux, Initial residual = 1.74822e-07, Final residual = 1.74822e-07, No Iterations 0
smoothSolver:  Solving for Uy, Initial residual = 1.11014e-07, Final residual = 1.11014e-07, No Iterations 0
DICPCG:  Solving for p, Initial residual = 1.03551e-06, Final residual = 3.43876e-07, No Iterations 1
time step continuity errors : sum local = 1.52115e-06, global = -5.29396e-19, cumulative = 2.9702e-15
ExecutionTime = 0.62 s  ClockTime = 0 s

Time = 987

smoothSolver:  Solving for Ux, Initial residual = 1.61496e-07, Final residual = 1.61496e-07, No Iterations 0
smoothSolver:  Solving for Uy, Initial residual = 1.13382e-07, Final residual = 1.13382e-07, No Iterations 0
DICPCG:  Solving for p, Initial residual = 6.41573e-07, Final residual = 6.41573e-07, No Iterations 0
time step continuity errors : sum local = 2.25952e-06, global = 9.61184e-17, cumulative = 3.06632e-15
ExecutionTime = 0.62 s  ClockTime = 0 s

Time = 988

smoothSolver:  Solving for Ux, Initial residual = 1.40137e-07, Final residual = 1.40137e-07, No Iterations 0
smoothSolver:  Solving for Uy, Initial residual = 1.13025e-07, Final residual = 1.13025e-07, No Iterations 0
DICPCG:  Solving for p, Initial residual = 7.94117e-07, Final residual = 7.94117e-07, No Iterations 0
time step continuity errors : sum local = 2.63743e-06, global = 5.72409e-18, cumulative = 3.07205e-15
ExecutionTime = 0.62 s  ClockTime = 0 s

Time = 989

smoothSolver:  Solving for Ux, Initial residual = 1.73712e-07, Final residual = 1.73712e-07, No Iterations 0
smoothSolver:  Solving for Uy, Initial residual = 1.00867e-07, Final residual = 1.00867e-07, No Iterations 0
DICPCG:  Solving for p, Initial residual = 9.2053e-07, Final residual = 9.2053e-07, No Iterations 0
time step continuity errors : sum local = 2.9506e-06, global = -1.93196e-16, cumulative = 2.87885e-15
ExecutionTime = 0.62 s  ClockTime = 0 s

Time = 990

smoothSolver:  Solving for Ux, Initial residual = 2.18142e-07, Final residual = 2.18142e-07, No Iterations 0
smoothSolver:  Solving for Uy, Initial residual = 1.06929e-07, Final residual = 1.06929e-07, No Iterations 0
DICPCG:  Solving for p, Initial residual = 9.67418e-07, Final residual = 9.67418e-07, No Iterations 0
time step continuity errors : sum local = 3.06676e-06, global = 5.10536e-17, cumulative = 2.9299e-15
ExecutionTime = 0.62 s  ClockTime = 0 s

Time = 991

smoothSolver:  Solving for Ux, Initial residual = 2.75363e-07, Final residual = 2.75363e-07, No Iterations 0
smoothSolver:  Solving for Uy, Initial residual = 1.27241e-07, Final residual = 1.27241e-07, No Iterations 0
DICPCG:  Solving for p, Initial residual = 1.06955e-06, Final residual = 3.54514e-07, No Iterations 1
time step continuity errors : sum local = 1.54726e-06, global = 3.95392e-17, cumulative = 2.96944e-15
ExecutionTime = 0.62 s  ClockTime = 0 s

Time = 992

smoothSolver:  Solving for Ux, Initial residual = 2.65808e-07, Final residual = 2.65808e-07, No Iterations 0
smoothSolver:  Solving for Uy, Initial residual = 1.60204e-07, Final residual = 1.60204e-07, No Iterations 0
DICPCG:  Solving for p, Initial residual = 8.24605e-07, Final residual = 8.24605e-07, No Iterations 0
time step continuity errors : sum local = 2.71276e-06, global = 1.55874e-16, cumulative = 3.12532e-15
ExecutionTime = 0.62 s  ClockTime = 0 s

Time = 993

smoothSolver:  Solving for Ux, Initial residual = 2.43429e-07, Final residual = 2.43429e-07, No Iterations 0
smoothSolver:  Solving for Uy, Initial residual = 1.62209e-07, Final residual = 1.62209e-07, No Iterations 0
DICPCG:  Solving for p, Initial residual = 1.06487e-06, Final residual = 3.54735e-07, No Iterations 1
time step continuity errors : sum local = 1.5476e-06, global = -9.93278e-17, cumulative = 3.02599e-15
ExecutionTime = 0.62 s  ClockTime = 0 s

Time = 994

smoothSolver:  Solving for Ux, Initial residual = 2.0774e-07, Final residual = 2.0774e-07, No Iterations 0
smoothSolver:  Solving for Uy, Initial residual = 1.74994e-07, Final residual = 1.74994e-07, No Iterations 0
DICPCG:  Solving for p, Initial residual = 7.4039e-07, Final residual = 7.4039e-07, No Iterations 0
time step continuity errors : sum local = 2.5039e-06, global = -1.01743e-16, cumulative = 2.92425e-15
ExecutionTime = 0.62 s  ClockTime = 0 s

Time = 995

smoothSolver:  Solving for Ux, Initial residual = 1.53608e-07, Final residual = 1.53608e-07, No Iterations 0
smoothSolver:  Solving for Uy, Initial residual = 1.59133e-07, Final residual = 1.59133e-07, No Iterations 0
DICPCG:  Solving for p, Initial residual = 7.38177e-07, Final residual = 7.38177e-07, No Iterations 0
time step continuity errors : sum local = 2.49838e-06, global = -1.32845e-16, cumulative = 2.7914e-15
ExecutionTime = 0.64 s  ClockTime = 0 s

Time = 996

smoothSolver:  Solving for Ux, Initial residual = 1.58566e-07, Final residual = 1.58566e-07, No Iterations 0
smoothSolver:  Solving for Uy, Initial residual = 1.3441e-07, Final residual = 1.3441e-07, No Iterations 0
DICPCG:  Solving for p, Initial residual = 8.40402e-07, Final residual = 8.40402e-07, No Iterations 0
time step continuity errors : sum local = 2.75162e-06, global = 2.48816e-17, cumulative = 2.81628e-15
ExecutionTime = 0.64 s  ClockTime = 0 s

Time = 997

smoothSolver:  Solving for Ux, Initial residual = 1.7169e-07, Final residual = 1.7169e-07, No Iterations 0
smoothSolver:  Solving for Uy, Initial residual = 1.20318e-07, Final residual = 1.20318e-07, No Iterations 0
DICPCG:  Solving for p, Initial residual = 1.09689e-06, Final residual = 3.44802e-07, No Iterations 1
time step continuity errors : sum local = 1.52274e-06, global = 4.1359e-18, cumulative = 2.82042e-15
ExecutionTime = 0.64 s  ClockTime = 0 s

Time = 998

smoothSolver:  Solving for Ux, Initial residual = 1.81294e-07, Final residual = 1.81294e-07, No Iterations 0
smoothSolver:  Solving for Uy, Initial residual = 1.24352e-07, Final residual = 1.24352e-07, No Iterations 0
DICPCG:  Solving for p, Initial residual = 7.62077e-07, Final residual = 7.62077e-07, No Iterations 0
time step continuity errors : sum local = 2.55739e-06, global = -1.568e-16, cumulative = 2.66362e-15
ExecutionTime = 0.64 s  ClockTime = 0 s

Time = 999

smoothSolver:  Solving for Ux, Initial residual = 1.25825e-07, Final residual = 1.25825e-07, No Iterations 0
smoothSolver:  Solving for Uy, Initial residual = 1.23218e-07, Final residual = 1.23218e-07, No Iterations 0
DICPCG:  Solving for p, Initial residual = 8.45709e-07, Final residual = 8.45709e-07, No Iterations 0
time step continuity errors : sum local = 2.76455e-06, global = -6.71009e-17, cumulative = 2.59652e-15
ExecutionTime = 0.64 s  ClockTime = 0 s

Time = 1000

smoothSolver:  Solving for Ux, Initial residual = 1.65379e-07, Final residual = 1.65379e-07, No Iterations 0
smoothSolver:  Solving for Uy, Initial residual = 1.07385e-07, Final residual = 1.07385e-07, No Iterations 0
DICPCG:  Solving for p, Initial residual = 9.53617e-07, Final residual = 9.53617e-07, No Iterations 0
time step continuity errors : sum local = 3.03189e-06, global = 5.41969e-17, cumulative = 2.65071e-15
ExecutionTime = 0.64 s  ClockTime = 0 s

Time = 1001

smoothSolver:  Solving for Ux, Initial residual = 2.1962e-07, Final residual = 2.1962e-07, No Iterations 0
smoothSolver:  Solving for Uy, Initial residual = 1.00479e-07, Final residual = 1.00479e-07, No Iterations 0
DICPCG:  Solving for p, Initial residual = 1.10614e-06, Final residual = 3.53982e-07, No Iterations 1
time step continuity errors : sum local = 1.54526e-06, global = -9.45302e-17, cumulative = 2.55618e-15
ExecutionTime = 0.64 s  ClockTime = 0 s

End

